Name: Clinochlore (Mg,Fe+2)5Al(Si3Al)O10(OH)8
Type: Mineral
Class: Silicates
Subclass: Phyllosilicates (sheet silicates) (Chlorite Group)
Particle Size: Coarse  (74-250 Micrometers)
Sample No.: clinochlore.1
Owner: JHU
Wavelength Range: IR
Origin: The Smithsonian (NMNH 83369), donated by Jim Crowley
Description: The sample was a green micaceous mass about 3 cm
Measurement: Bidirectional reflectance
X Units: Wavelength (micrometers)
Y Units: Reflectance (percent)
wavelength	value
25.0442	8.1748
24.3388	8.772
23.6719	9.7507
23.0407	10.9985
22.4422	12.6328
21.8741	13.9148
21.334	17.1992
20.8199	17.6206
20.33	15.405
19.8627	15.7304
19.4163	15.4304
18.9896	11.1726
18.5812	6.802
18.19	5.1619
17.815	5.0649
17.4551	2.8301
17.1094	2.9878
16.7772	3.3061
16.4576	3.6877
16.15	4.219
15.8537	4.8577
15.568	5.5915
15.2925	6.0735
15.0265	5.7214
14.7697	5.3203
14.5214	4.8638
14.2814	4.238
14.0492	3.9246
13.8244	3.7978
13.6067	3.6191
13.3957	3.4543
13.1912	3.4119
12.9929	3.1208
12.8004	2.7537
12.6135	2.5342
12.432	2.4726
12.2557	2.573
12.0843	2.7605
11.9176	3.083
11.7555	3.3711
11.5977	3.5342
11.444	3.6716
11.2944	3.9429
11.1487	4.2419
11.0067	4.552
10.8682	4.8093
10.7332	5.4316
10.6015	6.5303
10.473	7.7502
10.3476	8.2925
10.2251	8.0947
10.1056	8.5964
9.98873	9.8091
9.87458	12.195
9.763	14.7544
9.65392	15.4201
9.54724	13.5349
9.44291	11.6943
9.34082	11.1858
9.24091	11.2273
9.14312	10.3344
9.04739	8.7629
8.95363	6.4033
8.8618	5.008
8.77183	3.4592
8.68368	2.2524
8.59727	1.8726
8.51257	2.0776
8.42951	2.4438
8.34807	2.7866
8.26819	3.1462
8.18981	3.5176
8.11292	3.885
8.03745	4.2241
7.96337	4.4892
7.89064	4.7295
7.81924	4.9795
7.74911	5.164
7.68023	5.3054
7.61256	5.4192
7.54608	5.5117
7.48074	5.5618
7.41653	5.613
7.35341	5.7031
7.29136	5.7978
7.23034	5.9346
7.17033	6.0285
7.11132	6.1545
7.05327	6.2825
6.99616	6.3786
6.93996	6.4663
6.88467	6.5317
6.83024	6.5915
6.77667	6.7173
6.72393	6.7986
6.67201	6.9128
6.62089	6.987
6.57054	7.0261
6.52095	6.9634
6.4721	6.758
6.42398	6.5188
6.37657	6.3381
6.32986	6.168
6.28382	6.1401
6.23845	6.2087
6.19373	6.2854
6.14965	6.3657
6.10619	6.4621
6.06334	6.574
6.02109	6.6404
5.97942	6.625
5.93832	6.5705
5.89778	6.5564
5.8578	6.6387
5.81835	6.7585
5.77943	7.0046
5.74103	7.2563
5.70314	7.467
5.66574	7.6113
5.62883	7.6919
5.5924	7.7195
5.55644	7.7536
5.52093	7.8027
5.48588	7.886
5.45127	8.0429
5.41709	8.2929
5.38334	8.5998
5.35	8.8991
5.31708	9.1623
5.28456	9.3313
5.25243	9.4404
5.2207	9.5249
5.18934	9.5693
5.15836	9.5837
5.12775	9.5793
5.09749	9.5913
5.0676	9.5967
5.03805	9.6277
5.00884	9.6802
4.97998	9.7832
4.95144	10.0075
4.92322	10.3056
4.89533	10.6184
4.86775	10.9118
4.84048	11.1731
4.81351	11.4355
4.78684	11.6677
4.76047	11.9267
4.73439	12.2251
4.70859	12.5241
4.68306	12.8381
4.65782	13.1963
4.63284	13.5493
4.60814	13.8381
4.58369	14.1528
4.5595	14.4836
4.53557	14.726
4.51188	14.8745
4.48845	15.0114
4.46525	15.093
4.44229	15.1755
4.41957	15.2541
4.39708	15.3166
4.37481	15.3901
4.35277	15.4338
4.33096	15.489
4.30935	15.5224
4.28797	15.5847
4.26679	15.643
4.24583	15.6843
4.22506	15.7221
4.2045	15.7668
4.18414	15.8108
4.16398	15.8513
4.14401	15.8889
4.12423	15.9253
4.10464	15.9589
4.08523	16.0048
4.066	16.0388
4.04696	16.0771
4.02809	16.1013
4.0094	16.1054
3.99088	16.1218
3.97253	16.1259
3.95435	16.1272
3.93634	16.1411
3.91848	16.1604
3.90079	16.1865
3.88326	16.1967
3.86589	16.1655
3.84867	16.1511
3.8316	16.1184
3.81468	16.0669
3.79791	16.0417
3.78129	16.0066
3.76482	15.979
3.74848	15.9321
3.73229	15.8803
3.71624	15.8044
3.70032	15.7446
3.68454	15.6621
3.6689	15.6167
3.65338	15.5503
3.638	15.477
3.62275	15.3735
3.60762	15.2812
3.59262	15.1709
3.57775	15.0459
3.56299	14.9455
3.54836	14.7966
3.53385	14.6504
3.51945	14.4467
3.50517	14.1655
3.49101	13.9963
3.47696	13.8486
3.46303	13.8049
3.4492	13.6403
3.43549	13.4167
3.42188	13.154
3.40838	13.0215
3.39499	12.9958
3.38171	12.7329
3.36852	12.6801
3.35544	12.7382
3.34246	12.6914
3.32958	12.6179
3.3168	12.5476
3.30411	12.4416
3.29153	12.2863
3.27903	12.1296
3.26664	11.9787
3.25433	11.9026
3.24212	11.7959
3.23	11.6572
3.21797	11.4831
3.20603	11.2702
3.19418	11.0361
3.18241	10.8022
3.17074	10.5373
3.15914	10.25
3.14763	9.9504
3.13621	9.6772
3.12487	9.3913
3.11361	9.1179
3.10243	8.7778
3.09133	8.428
3.0803	8.0498
3.06936	7.6853
3.0585	7.3139
3.04771	6.9668
3.037	6.5998
3.02636	6.2317
3.0158	5.8564
3.00531	5.5017
2.99489	5.1255
2.98454	4.8074
2.97427	4.5232
2.96407	4.2724
2.95393	4.0491
2.94387	3.8396
2.93387	3.697
2.92394	3.5564
2.91408	3.4524
2.90429	3.428
2.89456	3.4409
2.88489	3.5044
2.87529	3.6389
2.86576	3.7568
2.85628	3.833
2.84687	3.8091
2.83752	3.7363
2.82823	3.5715
2.81901	3.4128
2.80984	3.2891
2.80073	3.2241
2.79168	3.22
2.78269	3.2861
2.77376	3.4233
2.76488	3.6047
2.75606	3.8901
2.7473	4.1977
2.73859	4.4814
2.72994	4.8037
2.72134	4.8679
2.7128	5.3027
2.70431	9.2995
2.69587	12.1733
2.68748	13.2876
2.67915	14.2929
2.67087	14.8474
2.66264	15.1411
2.65446	15.2099
2.64633	15.2985
2.63825	15.3798
2.63021	15.3686
2.62223	15.375
2.6143	15.3051
2.60641	15.1523
2.59857	15.0192
2.59078	14.9292
2.58304	14.7776
2.57534	14.6491
2.56768	14.6286
2.56008	14.6059
2.55251	14.6235
2.54499	14.6403
2.53752	14.685
2.53009	14.6318
2.5227	14.5708
2.51536	14.5547
2.50806	14.5752
2.5008	14.5473
2.49358	14.5942
2.4864	14.5525
2.47927	14.4753
2.47218	14.3862
2.46512	14.3491
2.45811	14.4697
2.45114	14.7143
2.4442	14.8125
2.43731	14.9575
2.43045	15.0449
2.42363	15.2226
2.41685	15.4379
2.41011	15.4384
2.40341	15.1538
2.39674	14.8452
2.39011	14.7236
2.38352	14.7485
2.37696	14.8535
2.37044	14.7631
2.36395	14.5288
2.35751	14.2119
2.35109	13.9223
2.34471	13.6084
2.33836	13.2412
2.33205	12.9458
2.32578	12.8076
2.31953	12.9126
2.31332	13.219
2.30714	13.5427
2.301	13.6081
2.29489	13.6203
2.28881	14.0671
2.28276	14.6965
2.27675	15.0725
2.27076	15.2014
2.26481	15.2024
2.25889	15.1755
2.253	15.0605
2.24714	15.0288
2.24131	15.0891
2.23551	15.4965
2.22974	16.0996
2.224	16.6308
2.21829	16.9389
2.21261	17.1555
2.20696	17.333
2.20134	17.4689
2.19574	17.6425
2.19018	17.7329
2.18464	17.7753
2.17913	17.9035
2.17365	17.9794
2.16819	18.0539
2.16277	18.2504
2.15737	18.1679
2.15199	18.1196
2.14665	18.1191
2.14133	18.2221
2.13603	18.1984
2.13077	18.248
2.12552	18.2773
2.12031	18.3225
2.11512	18.302
2.10995	18.3159
2.10481	18.3303
2.0997	18.3769
2.09461	18.479
2.08954	18.5742
2.0845	18.6621
2.07948	18.5786
