Name: Alunite (potassium alunite) KAl3(SO4)2(OH)6
Type: Mineral
Class: Sulfates
Particle Size: Fine (less than 2 Micrometers)
Sample No.: alunite.3
Owner: JHU
Wavelength Range: IR
Origin: Synthetic; Synthesized by Roger Stoffregen, supplied by Phil
Description: The sample was a light gray, microcrystalline powder
Measurement: Transmission
X Units: Wavelength (micrometers)
Y Units: Transmittance (percent)
wavelength	value
25.044	89.0232
24.339	80.7264
23.672	62.3787
23.041	68.8065
22.442	90.6482
21.874	95.1658
21.334	96.1951
20.82	94.9646
20.33	89.6365
19.863	87.8328
19.416	84.5867
18.99	68.8514
18.581	85.7595
18.19	87.3484
17.815	83.7791
17.455	75.7859
17.109	58.118
16.777	27.8769
16.458	39.5858
16.15	37.6806
15.854	28.1025
15.568	46.7186
15.292	72.2518
15.027	41.2704
14.77	33.1728
14.521	35.3632
14.281	47.639
14.049	62.8319
13.824	76.9646
13.607	84.2693
13.396	88.3523
13.191	90.8518
12.993	92.6838
12.8	93.801
12.614	94.488
12.432	94.9866
12.256	95.8132
12.084	96.2502
11.918	96.5642
11.755	96.7249
11.598	96.6912
11.444	96.4763
11.294	96.2268
11.149	96.1169
11.007	96.1599
10.868	95.887
10.733	95.5315
10.602	95.5837
10.473	94.6355
10.348	93.7561
10.225	92.1726
10.106	90.1033
9.989	87.429
9.875	82.4954
9.763	57.2196
9.654	72.993
9.547	64.2533
9.443	48.6879
9.341	28.9706
9.241	12.4297
9.143	17.5312
9.047	27.3652
8.954	38.7821
8.862	49.3715
8.772	57.1083
8.684	61.4393
8.597	58.2315
8.513	63.7118
8.43	62.8963
8.348	60.3028
8.268	54.4911
8.19	50.0936
8.113	51.2257
8.037	54.7696
7.963	63.2247
7.891	74.158
7.819	81.2051
7.749	85.0772
7.68	87.28
7.613	88.7532
7.546	90.0332
7.481	91.0325
7.417	91.9041
7.353	92.4668
7.291	92.9014
7.23	93.0813
7.17	92.8894
7.111	93.1672
7.053	93.6267
6.996	93.9236
6.94	94.2859
6.885	94.5881
6.83	94.658
6.777	94.5168
6.724	94.7732
6.672	94.9959
6.621	95.3037
6.571	95.3132
6.521	95.7341
6.472	95.9014
6.424	95.8389
6.377	96.0847
6.33	96.0564
6.284	96.0203
6.238	95.959
6.194	95.7175
6.15	95.3005
6.106	95.1287
6.063	95.3137
6.021	95.5857
5.979	95.7976
5.938	95.5986
5.898	95.8347
5.858	96.4382
5.818	96.292
5.779	96.6396
5.741	96.7891
5.703	96.9365
5.666	97.154
5.629	97.2244
5.592	97.2732
5.556	97.2461
5.521	97.3079
5.486	97.3252
5.451	97.5124
5.417	97.4929
5.383	97.6218
5.35	97.5847
5.317	97.6836
5.285	97.7585
5.252	97.7949
5.221	97.8154
5.189	97.8513
5.158	97.8555
5.128	97.865
5.097	97.8613
5.068	97.8809
5.038	97.9121
5.009	97.9705
4.98	97.9773
4.951	97.9746
4.923	98.0066
4.895	97.9792
4.868	98.0183
4.84	97.8494
4.814	98.0022
4.787	97.8689
4.76	97.2937
4.734	96.1853
4.709	96.2791
4.683	96.4373
4.658	96.6799
4.633	96.1692
4.608	95.6355
4.584	95.2366
4.56	95.7986
4.536	95.8645
4.512	95.8782
4.488	95.8435
4.465	96.1409
4.442	96.197
4.42	96.3191
4.397	96.4172
4.375	96.179
4.353	96.1814
4.331	96.4416
4.309	96.8733
4.288	96.9045
4.267	96.9885
4.246	97.1526
4.225	97.1804
4.205	97.2927
4.184	97.241
4.164	97.2351
4.144	97.2737
4.124	97.2341
4.105	97.2107
4.085	97.2273
4.066	97.1936
4.047	97.2039
4.028	97.2537
4.009	97.2854
3.991	97.2371
3.973	97.156
3.954	97.158
3.936	97.1658
3.918	97.1799
3.901	97.1462
3.883	97.0613
3.866	97.0027
3.849	96.9885
3.832	97.0764
3.815	97.0046
3.798	97.0027
3.781	96.989
3.765	96.928
3.748	96.8904
3.732	96.8806
3.716	96.7849
3.7	96.7483
3.685	96.7522
3.669	96.6565
3.653	96.5691
3.638	96.529
3.623	96.4812
3.608	96.3972
3.593	96.3044
3.578	96.176
3.563	96.116
3.548	96.0134
3.534	95.9666
3.519	96.0276
3.505	96.2224
3.491	95.9358
3.477	95.7795
3.463	95.615
3.449	95.6414
3.435	95.6423
3.422	95.8103
3.408	95.4226
3.395	95.0354
3.382	94.8127
3.369	94.6687
3.355	94.3474
3.342	94.0896
3.33	93.8621
3.317	93.7092
3.304	93.6267
3.292	93.5798
3.279	93.4314
3.267	93.2483
3.254	92.9685
3.242	92.6526
3.23	92.5823
3.218	92.6423
3.206	92.4461
3.194	92.3484
3.182	92.2195
3.171	92.1882
3.159	92.0134
3.148	91.9695
3.136	91.7644
3.125	91.6111
3.114	91.7605
3.102	91.5574
3.091	90.9841
3.08	90.8445
3.069	90.8992
3.058	90.7927
3.048	90.9597
3.037	90.9148
3.026	90.5623
3.016	89.9939
3.005	89.9119
2.995	89.5095
2.985	88.4461
2.974	87.1228
2.964	86.3162
2.954	84.9002
2.944	83.3513
2.934	83.0369
2.924	81.9226
2.914	79.5818
2.904	75.6229
2.895	67.4549
2.885	50.7147
2.875	23.8447
2.866	15.5722
2.856	36.453
2.847	27.1406
2.838	49.8475
2.828	64.8514
2.819	72.3885
2.81	76.9031
2.801	79.5428
2.792	81.9295
2.783	83.7771
2.774	84.7947
2.765	86.2146
2.756	87.6013
2.747	88.8162
2.739	89.4773
2.73	90.3084
2.721	90.5711
2.713	91.3435
2.704	91.9109
2.696	91.9148
2.687	92.2459
2.679	92.4412
2.671	92.4617
2.663	92.8562
2.654	92.9802
2.646	93.2263
2.638	93.3757
2.63	93.2595
2.622	93.6619
2.614	93.6443
2.606	93.488
2.599	93.8416
2.591	93.699
2.583	93.7498
2.575	93.8279
2.568	93.7849
2.56	93.8455
2.553	94.031
2.545	94.0271
2.538	94.1638
2.53	93.9099
2.523	94.0584
2.515	93.9861
2.508	93.9138
2.501	94.3298
2.494	94.4646
2.486	94.4334
2.479	94.2966
2.472	94.4959
2.465	94.3357
2.458	94.4763
2.451	94.5173
2.444	94.531
2.437	94.6169
2.43	94.3748
2.424	94.3611
2.417	94.6423
2.41	94.781
2.403	94.949
2.397	94.574
2.39	94.7283
2.384	94.8865
2.377	94.9919
2.37	95.1169
2.364	94.8357
2.358	95.0173
2.351	95.0544
2.345	95.0251
2.338	95.156
2.332	95.1443
2.326	95.0388
2.32	95.0544
2.313	95.2732
2.307	95.2048
2.301	94.9724
2.295	95.3455
2.289	95.2908
2.283	95.283
2.277	95.031
2.271	95.6052
2.265	94.781
2.259	95.5427
2.253	95.2615
2.247	95.1638
2.241	95.4607
2.236	95.1873
2.23	95.3005
2.224	95.2966
2.218	95.4373
2.213	95.2927
2.207	95.3005
2.201	95.0466
2.196	95.4998
2.19	95.3982
2.185	95.4099
2.179	94.6599
2.174	95.1873
2.168	95.5349
2.163	95.238
2.157	94.8279
2.152	95.2654
2.147	95.1091
2.141	95.1794
2.136	95.531
2.131	95.3982
2.126	95.2693
2.12	95.3279
2.115	95.2224
2.11	95.6287
2.105	95.5662
2.1	95.3435
2.095	95.7732
2.09	95.1248
2.085	95.5505
2.079	96.1755
