Name: Carbonaceous Shale
Type: Rocks
Class: Sedimentary
Subclass: Shale
Particle Size: 500 - 1500 Micrometers
Sample No.: shale.6
Owner: JHU
Wavelength Range: All
Origin: Sample No. 388,  The Hunt and Salisbury Collection at the U.S.
Description: Sample is foraminiferid ooze. In contrast to shale.3, there
Measurement: Directional (10 Degree) Hemispherical Reflectance
X Units: Wavelength (micrometers)
Y Units: Reflectance (percent)
wavelength	value
14.0112	2.0901
13.7147	2.1773
13.4304	2.4588
13.1577	2.5881
12.8959	2.6462
12.6443	2.566
12.4023	2.3177
12.1694	2.4596
11.945	2.6646
11.7289	2.8742
11.5203	3.4518
11.3191	3.7788
11.1248	3.4018
10.937	3.1525
10.7555	3.0922
10.5799	3.189
10.4099	3.4429
10.2454	3.5855
10.0859	3.7056
9.9313	3.8243
9.7814	3.9544
9.636	4.253
9.4948	4.2633
9.3577	4.577
9.2245	4.6925
9.095	4.5891
8.9691	4.4839
8.8467	4.4607
8.7275	4.4693
8.6116	4.1066
8.4986	4.6346
8.3886	5.0904
8.2814	5.9187
8.1769	6.7777
8.075	6.6949
7.9756	6.7908
7.8786	6.62
7.784	6.7162
7.6916	6.8126
7.6014	6.5377
7.5133	6.6779
7.4272	6.6901
7.343	6.3685
7.2607	5.6345
7.1803	5.0741
7.1016	5.3965
7.0246	4.9653
6.9493	4.6727
6.8755	4.6779
6.8034	4.895
6.7327	5.3075
6.6634	5.8236
6.5956	6.6215
6.5292	7.3492
6.464	7.7273
6.4002	6.0829
6.3376	4.1569
6.2762	3.1221
6.216	2.5662
6.157	2.2382
6.099	2.1526
6.0421	2.1086
5.9863	2.2198
5.9315	2.2359
5.8777	2.3287
5.8249	2.4027
5.773	2.3974
5.722	2.4591
5.6719	2.5406
5.6227	2.4854
5.5744	1.7178
5.5268	2.4593
5.4801	2.9282
5.4341	3.2218
5.3889	3.2881
5.3445	3.2931
5.3008	3.4807
5.2578	3.7655
5.2154	4.0501
5.1738	4.1994
5.1328	4.2928
5.0925	4.1753
5.0528	4.3921
5.0137	4.4105
4.9752	4.5134
4.9373	4.6758
4.9	4.8346
4.8632	4.9792
4.827	5.0376
4.7913	5.0809
4.7561	5.0562
4.7215	4.8531
4.6873	4.4083
4.6536	4.4701
4.6205	4.904
4.5877	5.0737
4.5555	5.1359
4.5237	5.1867
4.4923	5.2665
4.4614	5.3933
4.4309	5.5362
4.4008	5.6146
4.3711	5.6536
4.3418	5.5678
4.3129	5.4441
4.2844	5.2979
4.2563	5.2974
4.2285	5.5434
4.2011	5.7407
4.174	5.7716
4.1473	5.7037
4.1209	5.5709
4.0949	5.3778
4.0692	5.1088
4.0438	4.5782
4.0187	3.8478
3.994	3.0644
3.9695	2.8543
3.9453	3.303
3.9214	3.6841
3.8979	3.8006
3.8746	3.874
3.8515	3.9595
3.8288	4.253
3.8063	4.7991
3.7841	5.5598
3.7621	5.8326
3.7404	5.9529
3.7189	6.0468
3.6977	6.0604
3.6767	6.0386
3.656	5.9989
3.6355	5.93
3.6152	5.829
3.5951	5.6433
3.5753	5.3239
3.5557	5.1422
3.5363	4.7581
3.5171	3.9939
3.4981	3.6486
3.4793	3.485
3.4607	3.7982
3.4423	3.8118
3.4241	3.6725
3.4061	3.7173
3.3883	3.7494
3.3707	3.7942
3.3533	3.7459
3.336	4.2229
3.3189	4.5066
3.302	4.5856
3.2853	4.6117
3.2687	4.6497
3.2523	4.7021
3.2361	4.7407
3.22	4.7287
3.204	4.6617
3.1883	4.6447
3.1727	4.5901
3.1572	4.5023
3.1419	4.4631
3.1268	4.4229
3.1117	4.3408
3.0969	4.2769
3.0821	4.2399
3.0675	4.2234
3.0531	4.2107
3.0388	4.1798
3.0246	4.1831
3.0105	4.1784
2.9966	4.1992
2.9828	4.2097
2.9692	4.2504
2.9556	4.2279
2.9422	4.2497
2.9289	4.2794
2.9157	4.3403
2.9027	4.3934
2.8897	4.4208
2.8769	4.4822
2.8642	4.5224
2.8516	4.5617
2.8391	4.5729
2.8267	4.581
2.8144	4.5619
2.8022	4.5184
2.7902	4.3421
2.7782	4.0989
2.7664	3.8348
2.7546	3.7573
2.7429	3.9982
2.7314	4.4782
2.7199	5.2835
2.7085	6.532
2.6973	7.4074
2.6861	8.0123
2.675	8.1556
2.664	8.2814
2.6531	8.5644
2.6423	8.6607
2.6315	8.5626
2.6209	8.6162
2.6103	8.6934
2.5999	8.6786
2.5895	8.6894
2.5792	8.6985
2.569	8.6766
2.5588	8.5901
2.5487	8.3307
2.5388	8.1194
2.5289	8.1752
2.519	8.3616
2.5093	8.4326
2.4996	8.5142
2.49	8.5525
2.4805	8.6542
2.471	8.7719
2.4616	8.9066
2.4523	8.9595
2.4431	9.0748
2.4339	9.1219
2.4248	9.1712
2.4157	9.2064
2.4068	9.236
2.3979	9.2808
2.389	9.315
2.3802	9.2863
2.3715	9.2585
2.3629	9.2102
2.3543	9.0818
2.3458	8.9669
2.3373	8.954
2.3289	9.0351
2.3206	9.1276
2.3123	9.1794
2.3041	9.2293
2.2959	9.2987
2.2878	9.3517
2.2798	9.3758
2.2718	9.4631
2.2638	9.5255
2.2559	9.5525
2.2481	9.5538
2.2403	9.5633
2.2326	9.5739
2.225	9.6121
2.2173	9.6387
2.2098	9.5882
2.2023	9.6169
2.1948	9.6399
2.1874	9.639
2.18	9.6603
2.1727	9.738
2.1655	9.6604
2.1583	9.7258
2.1511	9.7584
2.144	9.7531
2.1369	9.7246
2.1299	9.7909
2.1229	9.7584
2.116	9.759
2.1091	9.8715
2.1023	9.7734
2.0955	9.8024
2.0887	9.8418
2.082	9.7823
2.06	9.7998
2.028	9.93
1.996	9.8725
1.964	9.7991
1.932	9.7805
1.9	9.68
1.868	10.0096
1.836	10.1588
1.804	10.1054
1.772	10.2589
1.74	10.4078
1.708	10.3713
1.676	10.1734
1.644	10.2585
1.612	10.4747
1.58	10.3603
1.548	10.444
1.516	10.3968
1.484	10.4459
1.452	10.4504
1.42	10.506
1.388	10.496
1.356	10.5769
1.324	10.4563
1.292	10.4112
1.26	10.3031
1.228	10.3738
1.196	10.353
1.164	10.4112
1.132	10.2119
1.1	10.0527
1.068	9.8564
1.036	9.9132
1.004	9.914
0.972	9.8849
0.94	9.7586
0.908	9.7887
0.876	9.6864
0.844	9.676
0.812	9.4978
0.795	9.6493
0.787	9.4432
0.779	9.4222
0.771	9.2127
0.763	9.4128
0.755	9.3196
0.747	9.2791
0.739	9.0728
0.731	9.1189
0.723	9.0361
0.715	9.0205
0.707	8.9959
0.699	9.0441
0.691	8.9195
0.683	8.6936
0.675	8.6905
0.667	8.6861
0.659	8.604
0.651	8.344
0.643	8.3916
0.635	8.3279
0.627	8.3734
0.619	8.2787
0.611	8.1819
0.603	7.9786
0.595	7.923
0.587	7.9306
0.579	7.9069
0.571	7.7416
0.563	7.6602
0.555	7.6043
0.547	7.6767
0.539	7.6047
0.531	7.3308
0.523	7.3325
0.515	7.3829
0.507	7.1179
0.499	6.9898
0.491	6.797
0.483	6.7818
0.475	6.7306
0.467	6.555
0.459	6.2227
0.451	6.1634
0.443	6.0277
0.435	5.9592
0.427	5.6244
0.419	5.3191
0.411	5.308
0.403	5.1009
