Name: Fluorite CaF2
Type: Mineral
Class: Halides
Particle Size: Coarse  (74-250 Micrometers)
Sample No.: flourite.1
Owner: JHU
Wavelength Range: IR
Origin: Donated by Norma Vergo; sample from Bingham, New Mexico.
Description: The sample was a large piece of a transparent single
Measurement: Bidirectional reflectance
X Units: Wavelength (micrometers)
Y Units: Reflectance (percent)
wavelength	value
25.0442	9.4883
24.3388	9.4533
23.6719	9.5486
23.0407	9.8269
22.4422	9.791
21.8741	9.6814
21.334	9.3847
20.8199	8.6889
20.33	7.5537
19.8627	6.241
19.4163	5.3437
18.9896	4.5012
18.5812	3.4067
18.19	2.5225
17.815	1.8621
17.4551	1.4099
17.1094	0.9944
16.7772	0.6611
16.4576	0.3472
16.15	0.2288
15.8537	0.2092
15.568	0.2222
15.2925	0.2332
15.0265	0.3306
14.7697	0.4304
14.5214	0.5745
14.2814	0.6768
14.0492	0.749
13.8244	0.8171
13.6067	0.9497
13.3957	1.1711
13.1912	1.407
12.9929	1.6182
12.8004	1.8769
12.6135	2.1899
12.432	2.5659
12.2557	2.9492
12.0843	3.2529
11.9176	3.5317
11.7555	3.7703
11.5977	4.0156
11.444	4.2073
11.2944	4.4202
11.1487	4.5876
11.0067	4.7805
10.8682	4.9707
10.7332	5.1457
10.6015	5.3064
10.473	5.4563
10.3476	5.5781
10.2251	5.6843
10.1056	5.7468
9.98873	5.8391
9.87458	5.9143
9.763	5.97
9.65392	5.9983
9.54724	5.9866
9.44291	5.9421
9.34082	5.9084
9.24091	5.9055
9.14312	5.9223
9.04739	6.0229
8.95363	6.0974
8.8618	6.1006
8.77183	6.1304
8.68368	6.251
8.59727	6.3877
8.51257	6.5076
8.42951	6.5471
8.34807	6.5732
8.26819	6.6264
8.18981	6.6943
8.11292	6.7646
8.03745	6.8345
7.96337	6.9228
7.89064	7.0261
7.81924	7.1211
7.74911	7.2114
7.68023	7.272
7.61256	7.3269
7.54608	7.375
7.48074	7.4009
7.41653	7.4106
7.35341	7.415
7.29136	7.4079
7.23034	7.3877
7.17033	7.3149
7.11132	7.2803
7.05327	7.2781
6.99616	7.3083
6.93996	7.3345
6.88467	7.3481
6.83024	7.334
6.77667	7.3479
6.72393	7.363
6.67201	7.3594
6.62089	7.3811
6.57054	7.3923
6.52095	7.4236
6.4721	7.4402
6.42398	7.4365
6.37657	7.4675
6.32986	7.4875
6.28382	7.4809
6.23845	7.4802
6.19373	7.4741
6.14965	7.4634
6.10619	7.4592
6.06334	7.4804
6.02109	7.5237
5.97942	7.5827
5.93832	7.6426
5.89778	7.7136
5.8578	7.772
5.81835	7.7798
5.77943	7.7822
5.74103	7.7978
5.70314	7.8398
5.66574	7.8804
5.62883	7.9004
5.5924	7.9194
5.55644	7.9304
5.52093	7.9314
5.48588	7.9282
5.45127	7.9341
5.41709	7.935
5.38334	7.9609
5.35	7.9717
5.31708	7.9958
5.28456	8.0107
5.25243	8.0163
5.2207	8.0212
5.18934	8.0244
5.15836	8.0205
5.12775	8.029
5.09749	8.0395
5.0676	8.0617
5.03805	8.0764
5.00884	8.0842
4.97998	8.0762
4.95144	8.0705
4.92322	8.0654
4.89533	8.0512
4.86775	8.0566
4.84048	8.0593
4.81351	8.0766
4.78684	8.0805
4.76047	8.0759
4.73439	8.074
4.70859	8.0608
4.68306	8.0603
4.65782	8.0715
4.63284	8.0884
4.60814	8.1047
4.58369	8.1069
4.5595	8.104
4.53557	8.1086
4.51188	8.1052
4.48845	8.1067
4.46525	8.1167
4.44229	8.1308
4.41957	8.1509
4.39708	8.1665
4.37481	8.1633
4.35277	8.1679
4.33096	8.1706
4.30935	8.1662
4.28797	8.1636
4.26679	8.1589
4.24583	8.187
4.22506	8.1899
4.2045	8.2138
4.18414	8.2153
4.16398	8.2021
4.14401	8.1819
4.12423	8.1872
4.10464	8.1943
4.08523	8.1968
4.066	8.2109
4.04696	8.2016
4.02809	8.2053
4.0094	8.1987
3.99088	8.1887
3.97253	8.1775
3.95435	8.175
3.93634	8.1855
3.91848	8.1784
3.90079	8.1872
3.88326	8.197
3.86589	8.1889
3.84867	8.1855
3.8316	8.187
3.81468	8.1838
3.79791	8.185
3.78129	8.186
3.76482	8.199
3.74848	8.1948
3.73229	8.1953
3.71624	8.1936
3.70032	8.176
3.68454	8.1716
3.6689	8.1665
3.65338	8.1662
3.638	8.1621
3.62275	8.1528
3.60762	8.1489
3.59262	8.1416
3.57775	8.1274
3.56299	8.1047
3.54836	8.0857
3.53385	8.0783
3.51945	8.0622
3.50517	8.0188
3.49101	8.0198
3.47696	8.0251
3.46303	8.0229
3.4492	7.9958
3.43549	7.9778
3.42188	7.9455
3.40838	7.9436
3.39499	7.956
3.38171	7.967
3.36852	7.9702
3.35544	7.9717
3.34246	7.9638
3.32958	7.9626
3.3168	7.9582
3.30411	7.9416
3.29153	7.928
3.27903	7.9101
3.26664	7.8889
3.25433	7.8813
3.24212	7.8603
3.23	7.8359
3.21797	7.8139
3.20603	7.7842
3.19418	7.759
3.18241	7.7258
3.17074	7.6946
3.15914	7.6716
3.14763	7.6374
3.13621	7.6098
3.12487	7.5818
3.11361	7.562
3.10243	7.5261
3.09133	7.5127
3.0803	7.4922
3.06936	7.4736
3.0585	7.4665
3.04771	7.4575
3.037	7.4446
3.02636	7.426
3.0158	7.4177
3.00531	7.4026
2.99489	7.3877
2.98454	7.3662
2.97427	7.3393
2.96407	7.3305
2.95393	7.313
2.94387	7.3032
2.93387	7.3064
2.92394	7.2942
2.91408	7.2832
2.90429	7.2878
2.89456	7.303
2.88489	7.3008
2.87529	7.3152
2.86576	7.3215
2.85628	7.3274
2.84687	7.3486
2.83752	7.3613
2.82823	7.3742
2.81901	7.3799
2.80984	7.4136
2.80073	7.4189
2.79168	7.4424
2.78269	7.4707
2.77376	7.5102
2.76488	7.5276
2.75606	7.5359
2.7473	7.5754
2.73859	7.5901
2.72994	7.6428
2.72134	7.6606
2.7128	7.7234
2.70431	7.7463
2.69587	7.7617
2.68748	7.7783
2.67915	7.7671
2.67087	7.7612
2.66264	7.7768
2.65446	7.7646
2.64633	7.7678
2.63825	7.7412
2.63021	7.7307
2.62223	7.7178
2.6143	7.7134
2.60641	7.6867
2.59857	7.6916
2.59078	7.6929
2.58304	7.6628
2.57534	7.6455
2.56768	7.6457
2.56008	7.6406
2.55251	7.6157
2.54499	7.6076
2.53752	7.5908
2.53009	7.5805
2.5227	7.5532
2.51536	7.5578
2.50806	7.5329
2.5008	7.5183
2.49358	7.5129
2.4864	7.4944
2.47927	7.4919
2.47218	7.4758
2.46512	7.4963
2.45811	7.4604
2.45114	7.4377
2.4442	7.436
2.43731	7.414
2.43045	7.4111
2.42363	7.4172
2.41685	7.4009
2.41011	7.3635
2.40341	7.3594
2.39674	7.3513
2.39011	7.3457
2.38352	7.3271
2.37696	7.311
2.37044	7.3042
2.36395	7.2881
2.35751	7.282
2.35109	7.2822
2.34471	7.2932
2.33836	7.2615
2.33205	7.2742
2.32578	7.248
2.31953	7.2668
2.31332	7.2519
2.30714	7.2256
2.301	7.2483
2.29489	7.2378
2.28881	7.2334
2.28276	7.2331
2.27675	7.2363
2.27076	7.2138
2.26481	7.2026
2.25889	7.2226
2.253	7.2226
2.24714	7.2217
2.24131	7.2207
2.23551	7.2324
2.22974	7.2163
2.224	7.228
2.21829	7.2265
2.21261	7.23
2.20696	7.2705
2.20134	7.2463
2.19574	7.2656
2.19018	7.2661
2.18464	7.2656
2.17913	7.2715
2.17365	7.2807
2.16819	7.2876
2.16277	7.2446
2.15737	7.3208
2.15199	7.3017
2.14665	7.3335
2.14133	7.2934
2.13603	7.3159
2.13077	7.3252
2.12552	7.3362
2.12031	7.364
2.11512	7.3462
2.10995	7.3811
2.10481	7.425
2.0997	7.4441
2.09461	7.4382
2.08954	7.438
2.0845	7.4643
2.07948	7.4814
