Name: Augite (Ca,Na)(Mg,Fe,Al,Ti)(Si,Al)2O6
Type: Mineral
Class: Silicates
Subclass: Inosilicates (Pyroxene Group - single chain)
Particle Size: Coarse  (74-250 Micrometers)
Sample No.: augite.2
Owner: JHU
Wavelength Range: IR
Origin: Sample from Rozier, near Gorges du Tarn, Tarn, France via
Description: The sample was a single 22.31 g portion of a single
Measurement: Bidirectional reflectance
X Units: Wavelength (micrometers)
Y Units: Reflectance (percent)
wavelength	value
25.0442	8.0615
24.3388	8.2754
23.6719	7.7768
23.0407	7.8096
22.4422	7.5757
21.8741	8.2185
21.334	9.0322
20.8199	9.7295
20.33	10.0036
19.8627	10.7197
19.4163	11.2419
18.9896	11.1538
18.5812	10.6006
18.19	10.1386
17.815	10.1123
17.4551	9.6826
17.1094	8.2602
16.7772	6.2243
16.4576	3.7126
16.15	2.3989
15.8537	2.4814
15.568	2.7107
15.2925	2.4565
15.0265	2.4448
14.7697	2.5972
14.5214	2.6875
14.2814	2.8032
14.0492	2.9648
13.8244	3.0476
13.6067	3.1772
13.3957	3.396
13.1912	3.5327
12.9929	3.6167
12.8004	3.7371
12.6135	3.8899
12.432	4.0366
12.2557	4.2693
12.0843	4.5403
11.9176	4.8923
11.7555	5.3979
11.5977	6.0237
11.444	6.4885
11.2944	6.7566
11.1487	6.9778
11.0067	7.1914
10.8682	7.4399
10.7332	7.6238
10.6015	7.7029
10.473	7.72
10.3476	7.7221
10.2251	7.2915
10.1056	6.8408
9.98873	6.8078
9.87458	6.8742
9.763	7.0752
9.65392	7.4844
9.54724	8.0122
9.44291	8.5146
9.34082	8.946
9.24091	9.1238
9.14312	9.0827
9.04739	9.019
8.95363	8.8408
8.8618	8.3816
8.77183	7.3647
8.68368	5.8152
8.59727	3.1247
8.51257	0.9661
8.42951	0.5869
8.34807	0.8289
8.26819	1.0728
8.18981	1.2903
8.11292	1.4868
8.03745	1.6663
7.96337	1.8362
7.89064	2.0007
7.81924	2.1526
7.74911	2.2852
7.68023	2.4221
7.61256	2.5508
7.54608	2.6814
7.48074	2.8125
7.41653	2.9348
7.35341	3.0596
7.29136	3.1675
7.23034	3.2598
7.17033	3.3503
7.11132	3.4568
7.05327	3.5496
6.99616	3.6579
6.93996	3.7673
6.88467	3.8599
6.83024	3.9297
6.77667	3.9785
6.72393	3.9426
6.67201	3.8447
6.62089	3.7378
6.57054	3.6372
6.52095	3.5476
6.4721	3.4565
6.42398	3.4126
6.37657	3.4348
6.32986	3.4758
6.28382	3.5349
6.23845	3.6023
6.19373	3.6394
6.14965	3.6753
6.10619	3.708
6.06334	3.7649
6.02109	3.8201
5.97942	3.8877
5.93832	4.0024
5.89778	4.1528
5.8578	4.3306
5.81835	4.4775
5.77943	4.667
5.74103	4.9241
5.70314	5.1899
5.66574	5.3984
5.62883	5.5666
5.5924	5.696
5.55644	5.7886
5.52093	5.8337
5.48588	5.7895
5.45127	5.6599
5.41709	5.4756
5.38334	5.2871
5.35	5.1037
5.31708	4.9485
5.28456	4.8147
5.25243	4.7241
5.2207	4.6894
5.18934	4.6755
5.15836	4.6811
5.12775	4.7099
5.09749	4.7375
5.0676	4.8174
5.03805	4.926
5.00884	5.0596
4.97998	5.2209
4.95144	5.3684
4.92322	5.5288
4.89533	5.7163
4.86775	5.9209
4.84048	6.1531
4.81351	6.3943
4.78684	6.6404
4.76047	6.9038
4.73439	7.1975
4.70859	7.5161
4.68306	7.8469
4.65782	8.2217
4.63284	8.6006
4.60814	8.967
4.58369	9.3
4.5595	9.6008
4.53557	9.8677
4.51188	10.0993
4.48845	10.2734
4.46525	10.4111
4.44229	10.5012
4.41957	10.57
4.39708	10.6379
4.37481	10.6948
4.35277	10.7368
4.33096	10.7619
4.30935	10.7705
4.28797	10.791
4.26679	10.821
4.24583	10.8315
4.22506	10.8601
4.2045	10.8847
4.18414	10.9145
4.16398	10.9301
4.14401	10.9507
4.12423	10.9538
4.10464	10.9651
4.08523	10.99
4.066	10.9997
4.04696	10.9975
4.02809	11.0193
4.0094	11.0171
3.99088	11.0185
3.97253	11.018
3.95435	11.0349
3.93634	11.0344
3.91848	11.0261
3.90079	11.0515
3.88326	11.0344
3.86589	11.0393
3.84867	11.0217
3.8316	11.009
3.81468	11.0175
3.79791	11.0107
3.78129	11.0002
3.76482	10.98
3.74848	10.9721
3.73229	10.958
3.71624	10.9433
3.70032	10.9116
3.68454	10.8977
3.6689	10.8772
3.65338	10.8559
3.638	10.8432
3.62275	10.8108
3.60762	10.791
3.59262	10.7785
3.57775	10.7524
3.56299	10.7209
3.54836	10.6794
3.53385	10.6472
3.51945	10.6269
3.50517	10.5957
3.49101	10.5913
3.47696	10.5381
3.46303	10.5212
3.4492	10.5002
3.43549	10.4741
3.42188	10.4411
3.40838	10.4082
3.39499	10.385
3.38171	10.3659
3.36852	10.3388
3.35544	10.3078
3.34246	10.3069
3.32958	10.2888
3.3168	10.2741
3.30411	10.2436
3.29153	10.217
3.27903	10.1582
3.26664	10.1291
3.25433	10.0849
3.24212	10.0144
3.23	9.966
3.21797	9.9221
3.20603	9.8581
3.19418	9.8098
3.18241	9.758
3.17074	9.6831
3.15914	9.6313
3.14763	9.57
3.13621	9.4917
3.12487	9.4233
3.11361	9.3803
3.10243	9.331
3.09133	9.268
3.0803	9.185
3.06936	9.1506
3.0585	9.0808
3.04771	9.0251
3.037	8.9343
3.02636	8.8655
3.0158	8.7732
3.00531	8.6477
2.99489	8.5744
2.98454	8.4607
2.97427	8.334
2.96407	8.2129
2.95393	8.0395
2.94387	7.8735
2.93387	7.6821
2.92394	7.488
2.91408	7.2795
2.90429	7.1108
2.89456	6.9975
2.88489	6.8826
2.87529	6.7744
2.86576	6.7014
2.85628	6.6347
2.84687	6.5854
2.83752	6.5461
2.82823	6.5867
2.81901	6.6609
2.80984	6.8086
2.80073	6.8918
2.79168	6.876
2.78269	6.8359
2.77376	6.7864
2.76488	6.7534
2.75606	6.7988
2.7473	7.0481
2.73859	7.4651
2.72994	7.9289
2.72134	8.3574
2.7128	8.6975
2.70431	8.8657
2.69587	9.029
2.68748	9.2312
2.67915	9.3188
2.67087	9.2973
2.66264	9.2754
2.65446	9.2251
2.64633	9.145
2.63825	9.0403
2.63021	8.9626
2.62223	8.8984
2.6143	8.7949
2.60641	8.687
2.59857	8.5896
2.59078	8.519
2.58304	8.4045
2.57534	8.3449
2.56768	8.23
2.56008	8.1142
2.55251	8.0276
2.54499	7.9219
2.53752	7.8501
2.53009	7.7138
2.5227	7.6216
2.51536	7.5505
2.50806	7.4409
2.5008	7.3847
2.49358	7.2602
2.4864	7.1777
2.47927	7.0935
2.47218	7.0381
2.46512	6.9238
2.45811	6.8816
2.45114	6.8472
2.4442	6.7566
2.43731	6.6562
2.43045	6.6304
2.42363	6.5627
2.41685	6.5014
2.41011	6.4746
2.40341	6.4067
2.39674	6.3598
2.39011	6.3359
2.38352	6.2671
2.37696	6.2593
2.37044	6.1972
2.36395	6.1553
2.35751	6.1557
2.35109	6.1057
2.34471	6.0837
2.33836	6.0639
2.33205	6.0427
2.32578	5.9888
2.31953	5.9568
2.31332	5.9438
2.30714	5.9372
2.301	5.9119
2.29489	5.9043
2.28881	5.8948
2.28276	5.8694
2.27675	5.8811
2.27076	5.8547
2.26481	5.8633
2.25889	5.8567
2.253	5.8623
2.24714	5.8069
2.24131	5.8362
2.23551	5.8188
2.22974	5.844
2.224	5.8413
2.21829	5.8633
2.21261	5.8564
2.20696	5.8838
2.20134	5.832
2.19574	5.8838
2.19018	5.9092
2.18464	5.9038
2.17913	5.9248
2.17365	5.9316
2.16819	5.9612
2.16277	6.0354
2.15737	6.0615
2.15199	6.0312
2.14665	6.0044
2.14133	6.0461
2.13603	6.0566
2.13077	6.1059
2.12552	6.1123
2.12031	6.1274
2.11512	6.1565
2.10995	6.1828
2.10481	6.1897
2.0997	6.2505
2.09461	6.3284
2.08954	6.3061
2.0845	6.3496
2.07948	6.3779
