Name: Sao Jose do Rio Preto
Type: Stony Meteorites
Class: Ordinary Chondrite
Subclass: H4
Particle Size: 0-75 micrometers
Sample No.: Sao Jose do Rio Preto
Owner: JHU
Origin: Seen to fall in 1962.  Smithsonian sample No. USNM 5841.
Description: None.
Measurement: Bidirectional reflectance
X Units: Wavelength (micrometers)
Y Units: Reflectance (percent)
wavelength	value
25.044	1.2356
24.339	1.2666
23.672	1.1374
23.041	1.1899
22.442	1.1064
21.874	0.9976
21.334	0.9114
20.82	0.9294
20.33	1.1999
19.863	1.3313
19.416	1.374
18.99	1.2085
18.581	1.1868
18.19	1.1772
17.815	1.0664
17.455	1.095
17.109	1.0164
16.777	0.9416
16.458	0.8894
16.15	0.8477
15.854	0.7754
15.568	0.6782
15.292	0.6194
15.027	0.7126
14.77	0.8032
14.521	0.8833
14.281	1.0249
14.049	1.0786
13.824	1.0544
13.607	1.1318
13.396	1.2761
13.191	1.4983
12.993	1.626
12.8	1.6477
12.614	1.6379
12.432	1.6289
12.256	1.5486
12.084	1.3203
11.918	1.1179
11.755	1.1299
11.598	1.2217
11.444	1.418
11.294	1.4863
11.149	1.3633
11.007	1.3423
10.868	1.4253
10.733	1.5425
10.602	1.5181
10.473	1.3984
10.348	1.2764
10.225	1.3025
10.106	1.207
9.9887	1.1272
9.8746	1.0901
9.763	1.0256
9.6539	1.1335
9.5472	1.2715
9.4429	1.3281
9.3408	1.2761
9.2409	1.1768
9.1431	1.1467
9.0474	1.134
8.9536	1.0662
8.8618	1.0112
8.7718	0.9048
8.6837	0.8628
8.5973	0.8152
8.5126	0.8528
8.4295	0.9612
8.3481	1.123
8.2682	1.3372
8.1898	1.5386
8.1129	1.7205
8.0374	1.8904
7.9634	2.0471
7.8906	2.1694
7.8192	2.2693
7.7491	2.3579
7.6802	2.375
7.6126	2.2139
7.5461	2.196
7.4807	2.4883
7.4165	2.5676
7.3534	2.5078
7.2914	2.5549
7.2303	2.7402
7.1703	2.8896
7.1113	3.0242
7.0533	3.2114
6.9962	3.3308
6.94	3.4238
6.8847	3.5149
6.8302	3.6072
6.7767	3.7556
6.7239	3.8584
6.672	3.8638
6.6209	3.8081
6.5705	3.7434
6.5209	3.6252
6.4721	3.4387
6.424	3.2131
6.3766	2.9648
6.3299	2.7146
6.2838	2.5264
6.2385	2.3972
6.1937	2.3179
6.1496	2.2869
6.1062	2.2534
6.0633	2.2371
6.0211	2.1768
5.9794	2.2473
5.9383	2.4297
5.8978	2.7388
5.8578	3.1018
5.8184	3.4385
5.7794	3.8369
5.741	4.06
5.7031	4.0788
5.6657	4.0229
5.6288	4.0432
5.5924	4.1863
5.5564	4.3599
5.5209	4.4595
5.4859	4.4607
5.4513	4.4831
5.4171	4.564
5.3833	4.6623
5.35	4.7341
5.3171	4.7444
5.2846	4.7056
5.2524	4.6653
5.2207	4.6565
5.1893	4.645
5.1584	4.646
5.1277	4.7107
5.0975	4.792
5.0676	4.8816
5.038	4.9582
5.0088	5.0044
4.98	5.0205
4.9514	5.05
4.9232	5.1274
4.8953	5.2102
4.8678	5.2744
4.8405	5.3271
4.8135	5.3813
4.7868	5.4516
4.7605	5.5002
4.7344	5.5486
4.7086	5.5649
4.6831	5.5935
4.6578	5.6277
4.6328	5.6809
4.6081	5.7361
4.5837	5.771
4.5595	5.7981
4.5356	5.8196
4.5119	5.8352
4.4884	5.8486
4.4652	5.8572
4.4423	5.8662
4.4196	5.8774
4.3971	5.8806
4.3748	5.8828
4.3528	5.8801
4.331	5.883
4.3094	5.8852
4.288	5.8894
4.2668	5.9021
4.2458	5.9153
4.2251	5.9287
4.2045	5.9448
4.1841	5.9558
4.164	5.9695
4.144	5.9646
4.1242	5.969
4.1046	5.97
4.0852	5.9673
4.066	5.9587
4.047	5.949
4.0281	5.9282
4.0094	5.8994
3.9909	5.8799
3.9725	5.8689
3.9544	5.8611
3.9363	5.8608
3.9185	5.866
3.9008	5.8491
3.8833	5.844
3.8659	5.8262
3.8487	5.813
3.8316	5.8044
3.8147	5.7983
3.7979	5.7925
3.7813	5.7873
3.7648	5.7761
3.7485	5.7583
3.7323	5.74
3.7162	5.7182
3.7003	5.6826
3.6845	5.6628
3.6689	5.6301
3.6534	5.6003
3.638	5.5749
3.6227	5.5464
3.6076	5.5159
3.5926	5.4817
3.5777	5.439
3.563	5.395
3.5484	5.3442
3.5338	5.2771
3.5195	5.1545
3.5052	4.9831
3.491	4.957
3.477	4.9365
3.463	4.9075
3.4492	4.8359
3.4355	4.7395
3.4219	4.6086
3.4084	4.5986
3.395	4.6587
3.3817	4.637
3.3685	4.6704
3.3554	4.7053
3.3425	4.706
3.3296	4.6958
3.3168	4.6662
3.3041	4.6323
3.2915	4.5842
3.279	4.5403
3.2666	4.487
3.2543	4.4277
3.2421	4.3691
3.23	4.3142
3.218	4.2556
3.206	4.1999
3.1942	4.1448
3.1824	4.0974
3.1707	4.0471
3.1591	3.9951
3.1476	3.9436
3.1362	3.9038
3.1249	3.8533
3.1136	3.8066
3.1024	3.7612
3.0913	3.7266
3.0803	3.6885
3.0694	3.6504
3.0585	3.6152
3.0477	3.5788
3.037	3.509
3.0264	3.46
3.0158	3.4143
3.0053	3.3733
2.9949	3.3237
2.9845	3.2746
2.9743	3.22
2.9641	3.1863
2.9539	3.176
2.9439	3.1623
2.9339	3.1934
2.9239	3.2395
2.9141	3.3069
2.9043	3.3738
2.8946	3.4661
2.8849	3.5371
2.8753	3.623
2.8658	3.7051
2.8563	3.7866
2.8469	3.8799
2.8375	3.9702
2.8282	4.0593
2.819	4.1614
2.8098	4.2678
2.8007	4.362
2.7917	4.4839
2.7827	4.6113
2.7738	4.7302
2.7649	4.8586
2.7561	4.9951
2.7473	5.1211
2.7386	5.2578
2.7299	5.3723
2.7213	5.4722
2.7128	5.5493
2.7043	5.6096
2.6959	5.6626
2.6875	5.6921
2.6791	5.7016
2.6709	5.7117
2.6626	5.7182
2.6545	5.7082
2.6463	5.7038
2.6382	5.7034
2.6302	5.7038
2.6222	5.6933
2.6143	5.6865
2.6064	5.6931
2.5986	5.6828
2.5908	5.6694
2.583	5.6619
2.5753	5.6587
2.5677	5.6413
2.5601	5.6413
2.5525	5.6262
2.545	5.6235
2.5375	5.6186
2.5301	5.6155
2.5227	5.605
2.5154	5.5952
2.5081	5.5852
2.5008	5.5849
2.4936	5.5771
2.4864	5.5591
2.4793	5.5569
2.4722	5.5613
2.4651	5.5351
2.4581	5.5483
2.4511	5.5344
2.4442	5.5281
2.4373	5.5388
2.4305	5.5129
2.4236	5.5181
2.4169	5.5215
2.4101	5.5261
2.4034	5.5293
2.3967	5.521
2.3901	5.5349
2.3835	5.4963
2.377	5.4944
2.3704	5.4829
2.364	5.4905
2.3575	5.4809
2.3511	5.4768
2.3447	5.4651
2.3384	5.4692
2.3321	5.4648
2.3258	5.4927
2.3195	5.4673
2.3133	5.4924
2.3071	5.477
2.301	5.4963
2.2949	5.4912
2.2888	5.4934
2.2828	5.4665
2.2767	5.4863
2.2708	5.4912
2.2648	5.4941
2.2589	5.5056
2.253	5.4914
2.2471	5.5168
2.2413	5.4775
2.2355	5.4985
2.2297	5.4685
2.224	5.5073
2.2183	5.4885
2.2126	5.5202
2.207	5.5024
2.2013	5.4929
2.1957	5.5066
2.1902	5.5227
2.1846	5.5115
2.1791	5.491
2.1736	5.4829
2.1682	5.4482
2.1628	5.499
2.1574	5.4873
2.152	5.4841
2.1466	5.5098
2.1413	5.5007
2.136	5.4805
2.1308	5.4592
2.1255	5.4714
2.1203	5.4695
2.1151	5.4709
2.11	5.4851
2.1048	5.4726
2.0997	5.5229
2.0946	5.5266
2.0895	5.5046
2.0845	5.4883
2.0795	5.4741
