Name: Epidote Ca2(Al,Fe+3)3(SiO4)3(OH)
Type: Mineral
Class: Silicates
Subclass: Sorosilicates  (Epidote Group)
Particle Size: Fine  (0-74 Micrometers)
Sample No.: epidote.1
Owner: JHU
Wavelength Range: IR
Origin: Donated by Bruce Hemingway;  Sample from Prince of Wales
Description: The sample consisted of several deep green epidote
Measurement: Bidirectional reflectance
X Units: Wavelength (micrometers)
Y Units: Reflectance (percent)
wavelength	value
25.0442	1.5686
24.3388	1.564
23.6719	1.5537
23.0407	1.7314
22.4422	1.5566
21.8741	1.4565
21.334	1.3193
20.8199	1.146
20.33	1.2124
19.8627	1.5969
19.4163	1.7922
18.9896	1.8015
18.5812	1.5476
18.19	1.6467
17.815	1.7444
17.4551	1.5806
17.1094	1.1272
16.7772	0.8311
16.4576	0.8601
16.15	0.8804
15.8537	1.0056
15.568	1.2087
15.2925	1.2959
15.0265	1.1704
14.7697	1.0532
14.5214	1.2148
14.2814	1.2019
14.0492	0.9922
13.8244	0.771
13.6067	1.1245
13.3957	1.4665
13.1912	1.6252
12.9929	1.6946
12.8004	1.7253
12.6135	1.6675
12.432	1.4636
12.2557	1.2844
12.0843	1.1658
11.9176	1.0759
11.7555	1.1294
11.5977	1.1062
11.444	1.2996
11.2944	1.5063
11.1487	1.3696
11.0067	1.2683
10.8682	1.0454
10.7332	1.146
10.6015	1.5525
10.473	1.9729
10.3476	2.0559
10.2251	1.8406
10.1056	1.6992
9.98873	1.124
9.87458	0.481
9.763	0.6038
9.65392	1.0234
9.54724	1.2747
9.44291	1.4338
9.34082	1.3323
9.24091	1.4136
9.14312	1.3826
9.04739	1.3098
8.95363	1.3171
8.8618	1.3769
8.77183	1.3508
8.68368	0.9175
8.59727	0.5703
8.51257	0.5017
8.42951	0.6819
8.34807	1.0154
8.26819	1.4019
8.18981	1.7651
8.11292	2.0215
8.03745	2.2292
7.96337	2.4121
7.89064	2.6164
7.81924	2.8806
7.74911	3.1838
7.68023	3.5315
7.61256	3.8306
7.54608	4.0571
7.48074	4.2624
7.41653	4.4328
7.35341	4.571
7.29136	4.7202
7.23034	4.7988
7.17033	4.7952
7.11132	4.8896
7.05327	5.1067
6.99616	5.2849
6.93996	5.3342
6.88467	5.3718
6.83024	5.3452
6.77667	5.4929
6.72393	5.6152
6.67201	5.6062
6.62089	5.6103
6.57054	5.6308
6.52095	5.6948
6.4721	5.751
6.42398	5.9138
6.37657	6.0537
6.32986	6.0613
6.28382	6.0193
6.23845	6.0393
6.19373	6.1059
6.14965	6.0007
6.10619	5.739
6.06334	5.4673
6.02109	5.0273
5.97942	4.4204
5.93832	4.0181
5.89778	4.0879
5.8578	4.2881
5.81835	4.4045
5.77943	4.4243
5.74103	4.4639
5.70314	4.5723
5.66574	4.6533
5.62883	4.7944
5.5924	5.0491
5.55644	5.4841
5.52093	5.8857
5.48588	6.2207
5.45127	6.4895
5.41709	6.6091
5.38334	6.6565
5.35	6.5539
5.31708	6.5368
5.28456	6.4341
5.25243	6.2058
5.2207	6.1013
5.18934	6.3069
5.15836	6.7002
5.12775	6.7688
5.09749	6.6284
5.0676	6.5654
5.03805	6.4692
5.00884	6.3252
4.97998	5.6914
4.95144	5.449
4.92322	5.5561
4.89533	5.5786
4.86775	6.2112
4.84048	6.6484
4.81351	6.8652
4.78684	7.3989
4.76047	8.1328
4.73439	8.5637
4.70859	8.6169
4.68306	8.7517
4.65782	8.8652
4.63284	8.7683
4.60814	8.7165
4.58369	9.251
4.5595	9.8452
4.53557	10.3327
4.51188	10.7116
4.48845	11.0822
4.46525	11.3169
4.44229	11.4736
4.41957	11.5991
4.39708	11.6989
4.37481	11.7837
4.35277	11.8496
4.33096	11.8894
4.30935	11.9094
4.28797	11.9367
4.26679	11.9653
4.24583	12.0171
4.22506	12.0813
4.2045	12.1496
4.18414	12.2075
4.16398	12.2507
4.14401	12.2693
4.12423	12.3117
4.10464	12.3147
4.08523	12.3266
4.066	12.3222
4.04696	12.3017
4.02809	12.2458
4.0094	12.1391
3.99088	11.915
3.97253	11.9411
3.95435	12.0881
3.93634	12.2321
3.91848	12.3315
3.90079	12.3889
3.88326	12.4001
3.86589	12.3967
3.84867	12.3767
3.8316	12.3745
3.81468	12.3613
3.79791	12.3552
3.78129	12.3515
3.76482	12.3488
3.74848	12.2978
3.73229	12.2439
3.71624	12.157
3.70032	12.0798
3.68454	12.0349
3.6689	11.9912
3.65338	12.0068
3.638	12.0263
3.62275	11.9851
3.60762	11.9179
3.59262	11.8308
3.57775	11.7251
3.56299	11.6186
3.54836	11.4807
3.53385	11.2629
3.51945	10.6196
3.50517	8.8362
3.49101	10.2348
3.47696	10.2348
3.46303	10.0188
3.4492	9.5959
3.43549	8.6264
3.42188	7.6369
3.40838	8.8432
3.39499	9.4946
3.38171	9.3923
3.36852	9.6792
3.35544	9.8381
3.34246	9.7915
3.32958	9.6684
3.3168	9.5276
3.30411	9.384
3.29153	9.1657
3.27903	8.8249
3.26664	8.499
3.25433	8.2947
3.24212	8.177
3.23	8.0078
3.21797	7.7595
3.20603	7.4607
3.19418	7.093
3.18241	6.6848
3.17074	6.3572
3.15914	6.1352
3.14763	5.9516
3.13621	5.698
3.12487	5.3005
3.11361	4.7839
3.10243	4.2966
3.09133	3.9009
3.0803	3.6057
3.06936	3.3967
3.0585	3.258
3.04771	3.1208
3.037	2.9839
3.02636	2.8335
3.0158	2.6555
3.00531	2.406
2.99489	2.0056
2.98454	1.6709
2.97427	1.4499
2.96407	1.2969
2.95393	1.2656
2.94387	1.4138
2.93387	1.7393
2.92394	2.1997
2.91408	2.7202
2.90429	3.0488
2.89456	3.1719
2.88489	3.2966
2.87529	3.4573
2.86576	3.761
2.85628	4.1741
2.84687	4.6816
2.83752	5.3132
2.82823	6.073
2.81901	6.5879
2.80984	7.2915
2.80073	7.5405
2.79168	8.041
2.78269	8.2898
2.77376	8.6921
2.76488	9.2163
2.75606	9.7641
2.7473	10.2673
2.73859	10.5542
2.72994	10.9526
2.72134	11.1528
2.7128	11.6203
2.70431	11.748
2.69587	12.5012
2.68748	12.8391
2.67915	12.9939
2.67087	13.2107
2.66264	13.5302
2.65446	13.7136
2.64633	13.7697
2.63825	13.8379
2.63021	13.8586
2.62223	13.9597
2.6143	13.9902
2.60641	14.0351
2.59857	14.165
2.59078	14.2314
2.58304	14.2788
2.57534	14.3032
2.56768	14.2741
2.56008	14.2876
2.55251	14.2854
2.54499	14.2812
2.53752	14.3281
2.53009	14.3742
2.5227	14.3774
2.51536	14.4118
2.50806	14.4775
2.5008	14.5722
2.49358	14.6613
2.4864	14.7529
2.47927	14.8396
2.47218	14.9438
2.46512	14.945
2.45811	14.9951
2.45114	15.0434
2.4442	15.0546
2.43731	15.1015
2.43045	15.1445
2.42363	15.1108
2.41685	15.1399
2.41011	15.0781
2.40341	15.0307
2.39674	14.9109
2.39011	14.7407
2.38352	14.5346
2.37696	14.2409
2.37044	13.8081
2.36395	13.1294
2.35751	12.0498
2.35109	10.727
2.34471	9.6059
2.33836	9.1255
2.33205	9.3481
2.32578	10.0405
2.31953	10.8271
2.31332	11.4565
2.30714	12.291
2.301	12.9792
2.29489	13.4536
2.28881	13.7605
2.28276	14.0161
2.27675	14.2192
2.27076	14.2378
2.26481	14.0522
2.25889	13.7646
2.253	13.4345
2.24714	13.8559
2.24131	14.5053
2.23551	15.081
2.22974	15.3588
2.224	15.5449
2.21829	15.706
2.21261	15.7714
2.20696	15.8491
2.20134	15.8899
2.19574	15.9665
2.19018	15.9941
2.18464	16.0617
2.17913	16.0744
2.17365	16.1362
2.16819	16.1538
2.16277	16.2116
2.15737	16.206
2.15199	16.1823
2.14665	16.2524
2.14133	16.2661
2.13603	16.3147
2.13077	16.3237
2.12552	16.3376
2.12031	16.3086
2.11512	16.2876
2.10995	16.3418
2.10481	16.3789
2.0997	16.4328
2.09461	16.413
2.08954	16.4328
2.0845	16.4619
2.07948	16.4443
