Name: Phlogopite KMg3Si3Al010(F,OH)2
Type: Mineral
Class: Silicates
Subclass: Phyllosilicates (Sheet Silicates); (Mica Group)
Particle Size: Coarse  (75 - 250  Micrometers)
Sample No.: phlogop.1
Owner: JHU
Wavelength Range: IR
Origin: Burgess, Ontario, Canada via the Smithsonian (sample no.
Description: The hand sample consisted of rectangular sheets
Measurement: Bidirectional reflectance
X Units: Wavelength (micrometers)
Y Units: Reflectance (percent)
wavelength	value
25.0442	7.7055
24.3388	7.9443
23.6719	8.5171
23.0407	9.1333
22.4422	10.1933
21.8741	11.6093
21.334	13.5437
20.8199	13.5776
20.33	12.5446
19.8627	13.4946
19.4163	13.552
18.9896	13.4309
18.5812	14.2053
18.19	15.091
17.815	14.0664
17.4551	10.4773
17.1094	6.4575
16.7772	5.5278
16.4576	5.2839
16.15	5.1384
15.8537	5.0098
15.568	4.926
15.2925	4.9785
15.0265	4.9087
14.7697	4.9761
14.5214	4.9563
14.2814	4.8196
14.0492	4.9106
13.8244	4.9294
13.6067	4.8745
13.3957	5.1228
13.1912	5.5654
12.9929	5.8171
12.8004	6.5732
12.6135	6.9951
12.432	6.7763
12.2557	6.8838
12.0843	7.5442
11.9176	8.7024
11.7555	8.914
11.5977	8.8596
11.444	8.6987
11.2944	7.9179
11.1487	6.6535
11.0067	6.1426
10.8682	6.0742
10.7332	6.238
10.6015	6.5937
10.473	7.0234
10.3476	7.75
10.2251	8.073
10.1056	8.5595
9.98873	10.2783
9.87458	13.101
9.763	14.1071
9.65392	13.0202
9.54724	11.9309
9.44291	11.2722
9.34082	11.5266
9.24091	12.3549
9.14312	12.841
9.04739	12.8728
8.95363	11.4885
8.8618	11.4726
8.77183	11.2871
8.68368	9.4079
8.59727	6.3215
8.51257	3.5024
8.42951	3.5249
8.34807	4.4692
8.26819	5.3303
8.18981	6.1745
8.11292	7.0056
8.03745	7.6411
7.96337	8.1799
7.89064	8.7473
7.81924	9.3503
7.74911	9.821
7.68023	10.2243
7.61256	10.5073
7.54608	10.7187
7.48074	10.9216
7.41653	11.1457
7.35341	11.4421
7.29136	11.7929
7.23034	12.26
7.17033	12.7995
7.11132	13.3723
7.05327	13.9047
6.99616	14.4077
6.93996	14.7805
6.88467	15.0415
6.83024	15.2692
6.77667	15.5393
6.72393	15.768
6.67201	15.9699
6.62089	16.1171
6.57054	16.2131
6.52095	16.1809
6.4721	15.9157
6.42398	15.4924
6.37657	15.0588
6.32986	14.5359
6.28382	14.041
6.23845	13.582
6.19373	13.1699
6.14965	12.8715
6.10619	12.7956
6.06334	12.8842
6.02109	13.1091
5.97942	13.334
5.93832	13.4817
5.89778	13.5783
5.8578	13.6784
5.81835	13.7331
5.77943	14.0012
5.74103	14.2954
5.70314	14.4174
5.66574	14.5547
5.62883	14.7905
5.5924	15.0031
5.55644	15.1555
5.52093	15.309
5.48588	15.4953
5.45127	15.8005
5.41709	16.2746
5.38334	16.8686
5.35	17.4951
5.31708	18.1291
5.28456	18.5727
5.25243	18.7565
5.2207	18.7905
5.18934	18.7719
5.15836	18.7236
5.12775	18.6394
5.09749	18.54
5.0676	18.4738
5.03805	18.4514
5.00884	18.4826
4.97998	18.5637
4.95144	18.6105
4.92322	18.5886
4.89533	18.5891
4.86775	18.675
4.84048	18.8259
4.81351	18.9711
4.78684	19.1684
4.76047	19.3937
4.73439	19.6525
4.70859	19.8615
4.68306	20.0483
4.65782	20.277
4.63284	20.5231
4.60814	20.7441
4.58369	20.9531
4.5595	21.1313
4.53557	21.2272
4.51188	21.2827
4.48845	21.3081
4.46525	21.3295
4.44229	21.331
4.41957	21.3525
4.39708	21.3737
4.37481	21.3945
4.35277	21.4177
4.33096	21.4475
4.30935	21.4916
4.28797	21.5397
4.26679	21.5644
4.24583	21.6015
4.22506	21.6223
4.2045	21.6245
4.18414	21.6313
4.16398	21.6516
4.14401	21.6555
4.12423	21.6606
4.10464	21.6828
4.08523	21.6935
4.066	21.7026
4.04696	21.7094
4.02809	21.7175
4.0094	21.7209
3.99088	21.7236
3.97253	21.7282
3.95435	21.7607
3.93634	21.768
3.91848	21.791
3.90079	21.8107
3.88326	21.7963
3.86589	21.7756
3.84867	21.758
3.8316	21.7324
3.81468	21.7158
3.79791	21.6914
3.78129	21.6711
3.76482	21.6513
3.74848	21.6274
3.73229	21.5878
3.71624	21.5734
3.70032	21.5407
3.68454	21.5234
3.6689	21.4977
3.65338	21.4772
3.638	21.4738
3.62275	21.4492
3.60762	21.4453
3.59262	21.4123
3.57775	21.3842
3.56299	21.3493
3.54836	21.3002
3.53385	21.2363
3.51945	21.1249
3.50517	20.8654
3.49101	20.9975
3.47696	21.0812
3.46303	21.0624
3.4492	20.965
3.43549	20.8444
3.42188	20.5764
3.40838	20.6855
3.39499	20.8898
3.38171	20.9228
3.36852	20.9912
3.35544	21.0165
3.34246	20.9799
3.32958	20.9199
3.3168	20.8215
3.30411	20.7292
3.29153	20.6372
3.27903	20.5485
3.26664	20.4675
3.25433	20.3813
3.24212	20.3054
3.23	20.2368
3.21797	20.204
3.20603	20.2258
3.19418	20.2658
3.18241	20.34
3.17074	20.342
3.15914	20.3403
3.14763	20.2565
3.13621	20.1633
3.12487	20.0632
3.11361	19.9992
3.10243	19.9675
3.09133	19.9902
3.0803	20.0209
3.06936	20.0104
3.0585	19.9909
3.04771	19.9836
3.037	19.9633
3.02636	19.9353
3.0158	19.8796
3.00531	19.8261
2.99489	19.8454
2.98454	19.8427
2.97427	19.791
2.96407	19.7446
2.95393	19.6958
2.94387	19.6489
2.93387	19.6052
2.92394	19.5634
2.91408	19.5083
2.90429	19.4892
2.89456	19.486
2.88489	19.4174
2.87529	19.361
2.86576	19.3266
2.85628	19.2751
2.84687	19.228
2.83752	19.1362
2.82823	19.0378
2.81901	18.9653
2.80984	18.8999
2.80073	18.8078
2.79168	18.5776
2.78269	18.3137
2.77376	18.2126
2.76488	17.8715
2.75606	17.3703
2.7473	16.8718
2.73859	16.0654
2.72994	15.5915
2.72134	15.7392
2.7128	15.6745
2.70431	13.6159
2.69587	12.2336
2.68748	14.0542
2.67915	18.332
2.67087	19.781
2.66264	20.0017
2.65446	19.9641
2.64633	19.8078
2.63825	19.7243
2.63021	19.7878
2.62223	19.8964
2.6143	19.9367
2.60641	19.9296
2.59857	19.9553
2.59078	19.9372
2.58304	19.8591
2.57534	19.8339
2.56768	19.802
2.56008	19.7812
2.55251	19.8291
2.54499	19.8637
2.53752	19.9289
2.53009	19.9487
2.5227	19.9382
2.51536	19.8574
2.50806	19.8298
2.5008	19.8596
2.49358	19.9001
2.4864	19.8906
2.47927	19.8996
2.47218	19.8891
2.46512	19.8188
2.45811	19.7983
2.45114	19.7182
2.4442	19.6049
2.43731	19.6403
2.43045	19.6828
2.42363	19.7133
2.41685	19.7009
2.41011	19.632
2.40341	19.5703
2.39674	19.4377
2.39011	19.1779
2.38352	18.873
2.37696	18.8874
2.37044	19.1406
2.36395	19.3854
2.35751	19.4541
2.35109	19.5407
2.34471	19.4372
2.33836	19.2226
2.33205	18.7685
2.32578	18.4633
2.31953	18.6132
2.31332	18.9162
2.30714	19.2741
2.301	19.6074
2.29489	19.8532
2.28881	19.9846
2.28276	20.173
2.27675	20.3627
2.27076	20.4362
2.26481	20.5056
2.25889	20.5285
2.253	20.4057
2.24714	20.2775
2.24131	20.4455
2.23551	20.7333
2.22974	20.8935
2.224	20.9697
2.21829	21.0446
2.21261	21.0209
2.20696	21.0524
2.20134	21.0834
2.19574	21.0895
2.19018	21.1364
2.18464	21.1174
2.17913	21.0966
2.17365	21.1364
2.16819	21.1745
2.16277	21.2138
2.15737	21.2338
2.15199	21.184
2.14665	21.1718
2.14133	21.2553
2.13603	21.2077
2.13077	21.1877
2.12552	21.3071
2.12031	21.2875
2.11512	21.3037
2.10995	21.3295
2.10481	21.2893
2.0997	21.2458
2.09461	21.2805
2.08954	21.2902
2.0845	21.3159
2.07948	21.3403
