Name: Olivine (Fo88) (Fe+2,Mg)2SiO4
Type: Mineral
Class: Silicates
Subclass: Nesosilicates (Isolated tetrahedra); (Olivine Group)
Particle Size: Fine  (0-30 Micrometers)
Sample No.: olivine.8
Owner: JHU
Wavelength Range: IR
Origin: Brenham, Kansas (location of meteorite fall) via Trude King
Description: Olivine obtained from the Brenham meteorite was
Measurement: Bidirectional reflectance
X Units: Wavelength (micrometers)
Y Units: Reflectance (percent)
wavelength	value
25.0442	0.7744
24.3388	0.8635
23.6719	1.0725
23.0407	0.9019
22.4422	0.835
21.8741	0.5464
21.334	0.584
20.8199	0.5684
20.33	0.6052
19.8627	0.7651
19.4163	0.7844
18.9896	0.9228
18.5812	0.8069
18.19	0.8562
17.815	0.8467
17.4551	0.8625
17.1094	0.9048
16.7772	0.6865
16.4576	0.5937
16.15	0.7329
15.8537	0.8906
15.568	1.2144
15.2925	1.4182
15.0265	1.5508
14.7697	1.7998
14.5214	1.9663
14.2814	2.2065
14.0492	2.4978
13.8244	2.6946
13.6067	2.824
13.3957	2.8286
13.1912	2.8713
12.9929	2.6958
12.8004	2.3647
12.6135	2.1836
12.432	1.8545
12.2557	1.5508
12.0843	1.0796
11.9176	0.7356
11.7555	0.8342
11.5977	0.8374
11.444	0.9026
11.2944	0.915
11.1487	0.918
11.0067	0.9631
10.8682	1.0134
10.7332	1.0752
10.6015	1.1692
10.473	1.1182
10.3476	1.0542
10.2251	0.8386
10.1056	1.0273
9.98873	1.0442
9.87458	1.1133
9.763	1.2327
9.65392	1.4126
9.54724	1.6851
9.44291	1.9582
9.34082	2.2949
9.24091	2.1885
9.14312	1.8267
9.04739	1.6055
8.95363	1.5486
8.8618	1.6743
8.77183	1.9192
8.68368	2.2331
8.59727	2.3696
8.51257	2.7744
8.42951	2.9736
8.34807	3.2173
8.26819	3.7012
8.18981	4.3545
8.11292	4.7822
8.03745	4.9929
7.96337	5.1479
7.89064	5.2065
7.81924	5.227
7.74911	5.3711
7.68023	5.5683
7.61256	5.6189
7.54608	5.6799
7.48074	5.8159
7.41653	5.9602
7.35341	6.0708
7.29136	6.1479
7.23034	6.1189
7.17033	6.1702
7.11132	6.2473
7.05327	6.241
6.99616	6.3581
6.93996	6.436
6.88467	6.3957
6.83024	6.4741
6.77667	6.6719
6.72393	6.7539
6.67201	6.8291
6.62089	6.8972
6.57054	6.8684
6.52095	6.8696
6.4721	6.8838
6.42398	6.8479
6.37657	6.7839
6.32986	6.6365
6.28382	6.541
6.23845	6.4639
6.19373	6.5237
6.14965	6.5786
6.10619	6.5364
6.06334	6.2693
6.02109	5.6902
5.97942	5.6162
5.93832	5.771
5.89778	5.8242
5.8578	5.8486
5.81835	5.7268
5.77943	5.7075
5.74103	5.7471
5.70314	5.6868
5.66574	5.3777
5.62883	5.1623
5.5924	5.4319
5.55644	5.8906
5.52093	6.0227
5.48588	6.0058
5.45127	5.9985
5.41709	6.0967
5.38334	6.2012
5.35	6.2861
5.31708	6.3711
5.28456	6.4292
5.25243	6.4494
5.2207	6.4902
5.18934	6.6347
5.15836	6.7671
5.12775	6.8826
5.09749	6.9648
5.0676	7.0159
5.03805	7.021
5.00884	6.9714
4.97998	6.8928
4.95144	6.8193
4.92322	7.018
4.89533	7.3562
4.86775	7.7295
4.84048	7.927
4.81351	8.0112
4.78684	8.0771
4.76047	8.1035
4.73439	8.1233
4.70859	8.1494
4.68306	8.1589
4.65782	8.1709
4.63284	8.1953
4.60814	8.219
4.58369	8.2334
4.5595	8.2468
4.53557	8.2409
4.51188	8.2456
4.48845	8.2632
4.46525	8.27
4.44229	8.2895
4.41957	8.3171
4.39708	8.3357
4.37481	8.3452
4.35277	8.3594
4.33096	8.3594
4.30935	8.3684
4.28797	8.3865
4.26679	8.405
4.24583	8.4211
4.22506	8.4311
4.2045	8.4416
4.18414	8.4477
4.16398	8.4487
4.14401	8.4521
4.12423	8.4595
4.10464	8.4585
4.08523	8.4653
4.066	8.4712
4.04696	8.4665
4.02809	8.4521
4.0094	8.4443
3.99088	8.4426
3.97253	8.4419
3.95435	8.4319
3.93634	8.4372
3.91848	8.4399
3.90079	8.4397
3.88326	8.4182
3.86589	8.3984
3.84867	8.3855
3.8316	8.3769
3.81468	8.3674
3.79791	8.3569
3.78129	8.3552
3.76482	8.3547
3.74848	8.3401
3.73229	8.3144
3.71624	8.2983
3.70032	8.2827
3.68454	8.2712
3.6689	8.2617
3.65338	8.2329
3.638	8.2204
3.62275	8.2109
3.60762	8.1987
3.59262	8.1594
3.57775	8.1289
3.56299	8.0759
3.54836	8.0298
3.53385	7.9614
3.51945	7.7734
3.50517	7.2632
3.49101	7.4075
3.47696	7.478
3.46303	7.4834
3.4492	7.3176
3.43549	7.0759
3.42188	6.6028
3.40838	6.6826
3.39499	7.039
3.38171	7.0325
3.36852	7.1806
3.35544	7.3987
3.34246	7.48
3.32958	7.542
3.3168	7.5654
3.30411	7.477
3.29153	7.5115
3.27903	7.5058
3.26664	7.4226
3.25433	7.4189
3.24212	7.3833
3.23	7.393
3.21797	7.3528
3.20603	7.3266
3.19418	7.2834
3.18241	7.2458
3.17074	7.2048
3.15914	7.1719
3.14763	7.1294
3.13621	7.0981
3.12487	7.0705
3.11361	7.0469
3.10243	7.0044
3.09133	6.9819
3.0803	6.9531
3.06936	6.9299
3.0585	6.907
3.04771	6.8701
3.037	6.8564
3.02636	6.8352
3.0158	6.8034
3.00531	6.7785
2.99489	6.7632
2.98454	6.7546
2.97427	6.7258
2.96407	6.7168
2.95393	6.7055
2.94387	6.6987
2.93387	6.698
2.92394	6.6799
2.91408	6.6711
2.90429	6.6784
2.89456	6.6892
2.88489	6.7019
2.87529	6.7087
2.86576	6.7356
2.85628	6.7602
2.84687	6.8064
2.83752	6.8633
2.82823	6.9192
2.81901	6.9507
2.80984	7.0117
2.80073	7.0598
2.79168	7.1247
2.78269	7.1877
2.77376	7.2556
2.76488	7.3232
2.75606	7.3962
2.7473	7.4961
2.73859	7.561
2.72994	7.645
2.72134	7.7136
2.7128	7.7861
2.70431	7.8298
2.69587	7.883
2.68748	7.9341
2.67915	7.9626
2.67087	7.9656
2.66264	7.9536
2.65446	7.9619
2.64633	7.9582
2.63825	7.9328
2.63021	7.9136
2.62223	7.8906
2.6143	7.9121
2.60641	7.8804
2.59857	7.8955
2.59078	7.8862
2.58304	7.862
2.57534	7.8576
2.56768	7.8345
2.56008	7.8301
2.55251	7.7998
2.54499	7.79
2.53752	7.7744
2.53009	7.782
2.5227	7.7612
2.51536	7.7429
2.50806	7.7529
2.5008	7.7156
2.49358	7.7119
2.4864	7.6958
2.47927	7.6709
2.47218	7.6843
2.46512	7.6636
2.45811	7.6518
2.45114	7.6697
2.4442	7.6406
2.43731	7.6181
2.43045	7.6162
2.42363	7.5998
2.41685	7.5845
2.41011	7.5952
2.40341	7.5893
2.39674	7.5879
2.39011	7.5693
2.38352	7.5683
2.37696	7.5547
2.37044	7.5393
2.36395	7.5254
2.35751	7.5561
2.35109	7.519
2.34471	7.5283
2.33836	7.5132
2.33205	7.5161
2.32578	7.5171
2.31953	7.5044
2.31332	7.499
2.30714	7.5263
2.301	7.5195
2.29489	7.5029
2.28881	7.5156
2.28276	7.521
2.27675	7.5215
2.27076	7.5386
2.26481	7.4961
2.25889	7.5591
2.253	7.5337
2.24714	7.5349
2.24131	7.5644
2.23551	7.551
2.22974	7.5405
2.224	7.5627
2.21829	7.5288
2.21261	7.5298
2.20696	7.5215
2.20134	7.5554
2.19574	7.5364
2.19018	7.584
2.18464	7.5674
2.17913	7.5876
2.17365	7.5732
2.16819	7.6015
2.16277	7.5947
2.15737	7.5566
2.15199	7.5864
2.14665	7.5659
2.14133	7.6008
2.13603	7.6235
2.13077	7.6089
2.12552	7.6631
2.12031	7.6523
2.11512	7.6242
2.10995	7.6719
2.10481	7.6426
2.0997	7.6577
2.09461	7.6965
2.08954	7.7053
2.0845	7.7268
2.07948	7.7258
