Name: Vary dark grayish brown loam
Type: Soils
Class: Mollisol
Subclass: Agriudoll
Particle Size: see additional information
Sample No.: 87P757
Owner: JHU
Origin: Jefferson Co., Tn. via USDA Soil Conservation service.
Description: Parent material is alluvium from mixed material.  Very dark
Measurement: Directional (10 degree) hemispherical reflectance
X Units: Wavelength (micrometers)
Y Units: Reflectance (percent)
wavelength	value
14.011	2.02
13.715	2.2734
13.43	2.3974
13.158	2.3935
12.896	2.5203
12.644	2.1155
12.402	1.7852
12.169	1.6707
11.945	2.397
11.729	3.0549
11.52	3.2248
11.319	3.1731
11.125	3.0168
10.937	2.7109
10.756	2.8169
10.58	2.948
10.41	3.0234
10.245	3.0369
10.086	3.1807
9.931	3.5249
9.781	3.7058
9.636	4.2849
9.495	4.8164
9.358	6.385
9.225	7.168
9.095	6.9416
8.969	6.5332
8.847	6.7947
8.727	6.6062
8.612	5.6399
8.499	7.0373
8.389	7.4682
8.281	8.3375
8.177	8.8227
8.075	6.3794
7.976	4.4141
7.879	2.9392
7.784	2.4165
7.692	2.1755
7.601	1.9174
7.513	1.8154
7.427	1.7705
7.343	1.7417
7.261	1.7549
7.18	1.8669
7.102	1.9407
7.025	2.0361
6.949	2.2568
6.875	2.5176
6.803	2.7317
6.733	2.8779
6.663	3.0388
6.596	2.9617
6.529	2.9402
6.464	3.2715
6.4	3.1313
6.338	2.728
6.276	2.3433
6.216	2.0724
6.157	2.0779
6.099	2.3101
6.042	2.5166
5.986	2.7537
5.931	3.0251
5.878	3.9072
5.825	4.8894
5.773	5.8623
5.722	6.7602
5.672	6.8462
5.623	5.927
5.574	5.8603
5.527	6.5986
5.48	7.7131
5.434	7.9778
5.389	6.3266
5.345	5.468
5.301	5.866
5.258	6.9638
5.215	9.0984
5.174	9.8288
5.133	9.8694
5.093	9.8728
5.053	9.4922
5.014	9.5569
4.975	10.4961
4.937	12.2949
4.9	15.0337
4.863	18.6606
4.827	20.3554
4.791	21.2512
4.756	22.0219
4.721	22.5183
4.687	21.8962
4.654	22.8764
4.62	24.1122
4.588	24.8347
4.556	25.0849
4.524	24.4428
4.492	23.1498
4.461	23.0678
4.431	24.0654
4.401	25.122
4.371	26.3451
4.342	27.2228
4.313	27.4784
4.284	27.2834
4.256	27.7345
4.229	28.039
4.201	28.258
4.174	28.4928
4.147	28.6728
4.121	28.8869
4.095	29.0478
4.069	29.0954
4.044	29.0021
4.019	28.8207
3.994	28.664
3.97	28.58
3.945	28.4863
3.921	28.352
3.898	28.0268
3.875	27.624
3.852	27.236
3.829	26.8957
3.806	26.5268
3.784	26.0222
3.762	25.4631
3.74	24.9064
3.719	24.4365
3.698	23.9233
3.677	23.3764
3.656	22.8708
3.636	22.3054
3.615	21.687
3.595	21.0869
3.575	20.4133
3.556	19.7165
3.536	18.9968
3.517	18.0449
3.498	17.2104
3.479	16.6528
3.461	16.0678
3.442	15.3733
3.424	14.4636
3.406	13.9599
3.388	13.7356
3.371	13.417
3.353	13.0957
3.336	12.7566
3.319	12.2854
3.302	11.716
3.285	11.1609
3.269	10.612
3.252	10.0759
3.236	9.6386
3.22	9.1772
3.204	8.7478
3.188	8.3752
3.173	8.009
3.157	7.6282
3.142	7.3075
3.127	7.0222
3.112	6.771
3.097	6.5923
3.082	6.4225
3.067	6.2876
3.053	6.1941
3.039	6.0993
3.025	5.9814
3.011	5.9287
2.997	5.834
2.983	5.697
2.969	5.5764
2.956	5.5564
2.942	5.5168
2.929	5.5774
2.916	5.5315
2.903	5.6409
2.89	5.7651
2.877	5.9028
2.864	6.0207
2.852	6.1435
2.839	6.1676
2.827	6.1858
2.814	6.1387
2.802	6.0205
2.79	5.7805
2.778	5.1911
2.766	4.3933
2.755	4.2402
2.743	5.1103
2.731	6.2366
2.72	8.4609
2.708	8.9582
2.697	11.5285
2.686	24.037
2.675	31.6015
2.664	35.234
2.653	37.4774
2.642	38.8065
2.632	39.7521
2.621	40.3551
2.61	40.8512
2.6	41.3488
2.59	41.6517
2.579	41.9813
2.569	42.1801
2.559	42.4579
2.549	42.5888
2.539	42.768
2.529	42.8285
2.519	42.9357
2.509	43.1117
2.5	43.2394
2.49	43.4349
2.481	43.7127
2.471	43.9354
2.462	44.2084
2.452	44.4594
2.443	44.6713
2.434	45.0631
2.425	45.7513
2.416	46.1263
2.407	46.5078
2.398	46.7142
2.389	46.7521
2.38	46.8597
2.372	47.1635
2.363	47.3016
2.354	47.2023
2.346	47.391
2.337	47.7115
2.329	48.1847
2.321	48.5704
2.312	48.8092
2.304	49.1539
2.296	49.4259
2.288	49.7706
2.28	49.8705
2.272	49.9415
2.264	50.047
2.256	50.0616
2.248	49.806
2.24	49.8197
2.233	49.7169
2.225	49.3466
2.217	48.7504
2.21	47.5958
2.202	47.9186
2.195	48.7357
2.187	49.5127
2.18	49.973
2.173	50.3074
2.166	50.5646
2.158	50.9838
2.151	51.2972
2.144	51.5089
2.137	51.7655
2.13	51.6346
2.123	51.993
2.116	51.6686
2.109	52.0267
2.102	51.8461
2.095	51.8949
2.089	51.881
2.082	51.9943
2.06	51.7589
2.028	50.6301
1.996	49.9571
1.964	47.3992
1.932	45.9522
1.9	46.0051
1.868	52.7242
1.836	53.8851
1.804	53.6054
1.772	53.8503
1.74	53.6404
1.708	53.5306
1.676	53.1823
1.644	53.4986
1.612	53.081
1.58	52.6901
1.548	52.4597
1.516	52.2509
1.484	51.2111
1.452	49.9972
1.42	49.1251
1.388	49.405
1.356	50.485
1.324	50.7637
1.292	49.6546
1.26	49.4398
1.228	47.4754
1.196	46.6638
1.164	45.5084
1.132	44.096
1.1	43.4468
1.068	42.129
1.036	40.279
1.004	38.8269
0.972	36.8827
0.94	35.0338
0.908	33.3141
0.876	31.2778
0.844	29.6733
0.812	27.6755
0.795	26.0915
0.787	25.6919
0.779	24.9781
0.771	24.6198
0.763	23.8379
0.755	23.5263
0.747	22.5647
0.739	21.8594
0.731	21.1432
0.723	20.6053
0.715	19.9276
0.707	19.4163
0.699	18.5953
0.691	18.1632
0.683	17.9436
0.675	16.9411
0.667	16.4081
0.659	15.8592
0.651	15.2188
0.643	14.6909
0.635	14.4998
0.627	13.758
0.619	13.1907
0.611	12.7768
0.603	11.86
0.595	11.5212
0.587	11.1619
0.579	10.4837
0.571	9.6351
0.563	8.6477
0.555	8.1819
0.547	7.1932
0.539	6.5005
0.531	5.832
0.523	5.0778
0.515	4.5462
0.507	3.6956
0.499	3.3423
0.491	2.643
0.483	2.3257
0.475	1.501
0.467	1.2417
0.459	1.129
0.451	0.5875
0.443	0
0.435	0
0.427	0
0.419	0
0.411	0
0.403	0
