Name: Natrolite Na2Al2Si3O10.2H2O
Type: Mineral
Class: Silicates
Subclass: Tectosilicates (Framework Silicates); (ZeoliteGroup)
Particle Size: Fine  (0-74  Micrometers)
Sample No.: natrol.1
Owner: JHU
Wavelength Range: IR
Origin: Poonah, India via Hunt and Salisbury Collection #169B
Description: The sample appeared to be pure natrolite, although most
Measurement: Bidirectional reflectance
X Units: Wavelength (micrometers)
Y Units: Reflectance (percent)
wavelength	value
25.0442	1.3603
24.3388	1.1645
23.6719	1.2402
23.0407	0.8965
22.4422	0.8791
21.8741	0.9639
21.334	1.2471
20.8199	1.0413
20.33	1.0247
19.8627	0.8611
19.4163	0.6768
18.9896	0.7024
18.5812	0.8135
18.19	0.865
17.815	0.9192
17.4551	0.8113
17.1094	0.7043
16.7772	0.7854
16.4576	0.7371
16.15	0.7861
15.8537	0.7895
15.568	0.6792
15.2925	0.6448
15.0265	0.6716
14.7697	0.6262
14.5214	0.595
14.2814	0.5068
14.0492	0.52
13.8244	0.6367
13.6067	1.2598
13.3957	2.0786
13.1912	2.365
12.9929	2.6147
12.8004	2.9758
12.6135	3.1575
12.432	3.272
12.2557	3.3574
12.0843	3.3772
11.9176	3.416
11.7555	3.2993
11.5977	3.083
11.444	2.9106
11.2944	2.7117
11.1487	2.4521
11.0067	2.1279
10.8682	1.7673
10.7332	1.397
10.6015	1.1013
10.473	1.0283
10.3476	1.2334
10.2251	1.1855
10.1056	1.4622
9.98873	1.4839
9.87458	1.4915
9.763	0.9856
9.65392	0.5293
9.54724	1.0415
9.44291	1.1631
9.34082	0.9541
9.24091	1.0151
9.14312	1.3594
9.04739	1.4094
8.95363	1.8545
8.8618	2.0906
8.77183	2.0142
8.68368	1.7698
8.59727	1.3584
8.51257	0.8464
8.42951	0.4382
8.34807	0.2034
8.26819	0.1604
8.18981	0.2515
8.11292	0.4189
8.03745	0.6577
7.96337	0.8955
7.89064	1.1445
7.81924	1.3694
7.74911	1.5891
7.68023	1.8179
7.61256	2.0281
7.54608	2.2471
7.48074	2.4187
7.41653	2.6164
7.35341	2.7414
7.29136	2.8916
7.23034	3.0554
7.17033	3.1619
7.11132	3.2539
7.05327	3.457
6.99616	3.6238
6.93996	3.6909
6.88467	3.7551
6.83024	3.8489
6.77667	3.9812
6.72393	4.1011
6.67201	4.1912
6.62089	4.3176
6.57054	4.3262
6.52095	4.362
6.4721	4.311
6.42398	4.1662
6.37657	3.9719
6.32986	3.6987
6.28382	3.4263
6.23845	3.073
6.19373	2.4097
6.14965	1.4478
6.10619	1.3188
6.06334	2.3699
6.02109	3.3896
5.97942	3.9748
5.93832	4.2165
5.89778	4.3193
5.8578	4.4292
5.81835	4.4536
5.77943	4.6357
5.74103	4.8816
5.70314	5.0637
5.66574	5.3064
5.62883	5.477
5.5924	5.6758
5.55644	5.8154
5.52093	5.8391
5.48588	5.876
5.45127	6.1008
5.41709	6.4416
5.38334	6.7881
5.35	7.0129
5.31708	7.3191
5.28456	7.6694
5.25243	7.8345
5.2207	7.699
5.18934	7.6111
5.15836	7.6079
5.12775	7.3342
5.09749	7.1631
5.0676	6.9104
5.03805	6.7092
5.00884	7.0981
4.97998	7.395
4.95144	7.5259
4.92322	7.3628
4.89533	7.0659
4.86775	6.8596
4.84048	6.6797
4.81351	6.4062
4.78684	5.9997
4.76047	5.334
4.73439	4.438
4.70859	3.563
4.68306	3.012
4.65782	3.1238
4.63284	3.9189
4.60814	5.0303
4.58369	5.8916
4.5595	6.3367
4.53557	6.654
4.51188	6.9973
4.48845	7.3982
4.46525	7.8686
4.44229	8.3291
4.41957	8.699
4.39708	8.905
4.37481	9.0364
4.35277	9.1596
4.33096	9.2536
4.30935	9.3127
4.28797	9.4165
4.26679	9.5835
4.24583	9.7632
4.22506	9.9248
4.2045	10.0273
4.18414	10.1357
4.16398	10.2944
4.14401	10.5351
4.12423	10.7116
4.10464	10.8288
4.08523	10.8872
4.066	10.9013
4.04696	10.8476
4.02809	10.968
4.0094	11.0149
3.99088	11.0495
3.97253	11.062
3.95435	11.0715
3.93634	11.0615
3.91848	11.0644
3.90079	11.0278
3.88326	10.9634
3.86589	10.8681
3.84867	10.7448
3.8316	10.6196
3.81468	10.6347
3.79791	10.571
3.78129	10.5158
3.76482	10.4587
3.74848	10.3528
3.73229	10.2246
3.71624	10.0757
3.70032	9.9265
3.68454	9.7983
3.6689	9.6953
3.65338	9.6426
3.638	9.615
3.62275	9.5869
3.60762	9.5244
3.59262	9.4013
3.57775	9.2378
3.56299	9.041
3.54836	8.8376
3.53385	8.6435
3.51945	8.4404
3.50517	8.2278
3.49101	8.0317
3.47696	7.8105
3.46303	7.5898
3.4492	7.3669
3.43549	7.1042
3.42188	6.8469
3.40838	6.5845
3.39499	6.3056
3.38171	5.9946
3.36852	5.6741
3.35544	5.3411
3.34246	4.9795
3.32958	4.6216
3.3168	4.2817
3.30411	3.9861
3.29153	3.7681
3.27903	3.5762
3.26664	3.3787
3.25433	3.1851
3.24212	3.0425
3.23	2.907
3.21797	2.7107
3.20603	2.4753
3.19418	2.1853
3.18241	1.8718
3.17074	1.561
3.15914	1.3223
3.14763	1.1719
3.13621	1.1428
3.12487	1.1626
3.11361	1.1587
3.10243	1.1626
3.09133	1.2165
3.0803	1.2808
3.06936	1.2544
3.0585	1.1597
3.04771	1.0229
3.037	0.8499
3.02636	0.6494
3.0158	0.4878
3.00531	0.4438
2.99489	0.4839
2.98454	0.6116
2.97427	0.7168
2.96407	0.7827
2.95393	0.8142
2.94387	0.8506
2.93387	0.9045
2.92394	0.9587
2.91408	1.0207
2.90429	1.0466
2.89456	1.0391
2.88489	1.0037
2.87529	1.0366
2.86576	1.0942
2.85628	1.0076
2.84687	0.7495
2.83752	0.4651
2.82823	0.3057
2.81901	0.2646
2.80984	0.3872
2.80073	0.6243
2.79168	0.8801
2.78269	1.219
2.77376	1.5195
2.76488	1.8362
2.75606	2.2275
2.7473	2.7832
2.73859	3.4514
2.72994	4.4543
2.72134	5.6933
2.7128	6.9509
2.70431	7.8838
2.69587	8.4223
2.68748	8.7041
2.67915	8.7668
2.67087	8.8542
2.66264	9.1484
2.65446	9.3469
2.64633	9.4289
2.63825	9.5344
2.63021	9.7204
2.62223	10.0158
2.6143	10.1054
2.60641	9.9902
2.59857	9.738
2.59078	9.4341
2.58304	9.3908
2.57534	9.8286
2.56768	10.2827
2.56008	10.6765
2.55251	11.0251
2.54499	11.2778
2.53752	11.4262
2.53009	11.4712
2.5227	11.5212
2.51536	11.5656
2.50806	11.6604
2.5008	11.6721
2.49358	11.5627
2.4864	11.3269
2.47927	11.0119
2.47218	10.645
2.46512	10.3596
2.45811	10.3454
2.45114	10.355
2.4442	10.1648
2.43731	9.8371
2.43045	9.6789
2.42363	9.9677
2.41685	10.4663
2.41011	11.0547
2.40341	11.4917
2.39674	11.7973
2.39011	11.9585
2.38352	12.0478
2.37696	12.1421
2.37044	12.269
2.36395	12.4082
2.35751	12.5361
2.35109	12.624
2.34471	12.6762
2.33836	12.7978
2.33205	12.8774
2.32578	12.988
2.31953	13.0373
2.31332	13.1147
2.30714	13.1772
2.301	13.2304
2.29489	13.2011
2.28881	13.1645
2.28276	13.1313
2.27675	13.0927
2.27076	13.0913
2.26481	13.1836
2.25889	13.2192
2.253	13.2314
2.24714	13.1884
2.24131	13.1645
2.23551	13.1211
2.22974	13.0361
2.224	12.9204
2.21829	12.8159
2.21261	12.6333
2.20696	12.4272
2.20134	12.279
2.19574	12.3003
2.19018	12.4033
2.18464	12.5175
2.17913	12.6242
2.17365	12.6792
2.16819	12.657
2.16277	12.7221
2.15737	12.7192
2.15199	12.7378
2.14665	12.7453
2.14133	12.7846
2.13603	12.8169
2.13077	12.7607
2.12552	12.7246
2.12031	12.675
2.11512	12.5593
2.10995	12.4309
2.10481	12.2788
2.0997	12.146
2.09461	11.9968
2.08954	11.8965
2.0845	11.7719
2.07948	11.7863
