Name: Olivine (Fo92) (Fe+2,Mg)2SiO4
Type: Mineral
Class: Silicates
Subclass: Nesosilicates (Isolated tetrahedra); (Olivine Group)
Particle Size: 0-30 micrometers.  (Packed powder simulates coarse.)
Sample No.: olivine.1
Owner: JHU
Wavelength Range: IR
Origin: Kiglapait Intrusion, Labrador via Trude King #KI3005
Description: Initially, the specimen was contaminated with pyroxene,
Measurement: Bidirectional reflectance
X Units: Wavelength (micrometers)
Y Units: Reflectance (percent)
wavelength	value
25.0442	4.8164
24.3388	4.9416
23.6719	5.0454
23.0407	5.1767
22.4422	5.727
21.8741	6.2353
21.334	7.1826
20.8199	7.6904
20.33	7.907
19.8627	8.5798
19.4163	8.9714
18.9896	8.603
18.5812	6.5386
18.19	5.1308
17.815	5.2873
17.4551	5.7397
17.1094	5.845
16.7772	5.2478
16.4576	4.0058
16.15	3.3818
15.8537	3.435
15.568	3.7046
15.2925	3.9883
15.0265	4.1765
14.7697	4.3537
14.5214	4.5664
14.2814	4.7595
14.0492	4.9131
13.8244	4.9597
13.6067	5.0764
13.3957	5.1557
13.1912	5.2253
12.9929	5.3161
12.8004	5.3457
12.6135	5.362
12.432	5.4226
12.2557	5.4993
12.0843	5.914
11.9176	5.3237
11.7555	6.113
11.5977	7.0666
11.444	7.9165
11.2944	8.6047
11.1487	9.198
11.0067	9.5547
10.8682	9.3137
10.7332	6.8169
10.6015	7.7563
10.473	9.7197
10.3476	8.0442
10.2251	7.0854
10.1056	6.7102
9.98873	6.3979
9.87458	5.9309
9.763	5.0139
9.65392	3.7266
9.54724	2.6511
9.44291	2.2244
9.34082	2.2095
9.24091	2.3279
9.14312	2.4846
9.04739	2.6641
8.95363	2.8096
8.8618	2.9619
8.77183	3.0937
8.68368	3.2141
8.59727	3.3315
8.51257	3.4673
8.42951	3.6074
8.34807	3.7373
8.26819	3.8879
8.18981	4.0024
8.11292	4.0998
8.03745	4.1611
7.96337	4.2412
7.89064	4.2876
7.81924	4.3135
7.74911	4.3923
7.68023	4.4853
7.61256	4.5718
7.54608	4.6333
7.48074	4.6597
7.41653	4.6965
7.35341	4.7068
7.29136	4.7048
7.23034	4.6933
7.17033	4.7068
7.11132	4.6841
7.05327	4.6704
6.99616	4.6606
6.93996	4.6887
6.88467	4.6897
6.83024	4.6875
6.77667	4.7676
6.72393	4.7883
6.67201	4.822
6.62089	4.8415
6.57054	4.8557
6.52095	4.853
6.4721	4.8413
6.42398	4.8364
6.37657	4.8088
6.32986	4.76
6.28382	4.7204
6.23845	4.6799
6.19373	4.6428
6.14965	4.5669
6.10619	4.4509
6.06334	4.4133
6.02109	4.4519
5.97942	4.4761
5.93832	4.4917
5.89778	4.5222
5.8578	4.5337
5.81835	4.4905
5.77943	4.3462
5.74103	4.2844
5.70314	4.3201
5.66574	4.405
5.62883	4.4409
5.5924	4.4683
5.55644	4.4973
5.52093	4.5444
5.48588	4.5803
5.45127	4.6172
5.41709	4.6387
5.38334	4.6631
5.35	4.6909
5.31708	4.7222
5.28456	4.7571
5.25243	4.7786
5.2207	4.7847
5.18934	4.7986
5.15836	4.8174
5.12775	4.8628
5.09749	4.9038
5.0676	4.9507
5.03805	4.9927
5.00884	5.0176
4.97998	5.0447
4.95144	5.0657
4.92322	5.1015
4.89533	5.1201
4.86775	5.144
4.84048	5.1645
4.81351	5.1907
4.78684	5.2102
4.76047	5.2363
4.73439	5.2532
4.70859	5.271
4.68306	5.2991
4.65782	5.3105
4.63284	5.3391
4.60814	5.364
4.58369	5.384
4.5595	5.4057
4.53557	5.4258
4.51188	5.4497
4.48845	5.4751
4.46525	5.5012
4.44229	5.5293
4.41957	5.5622
4.39708	5.5984
4.37481	5.6272
4.35277	5.6587
4.33096	5.6855
4.30935	5.7046
4.28797	5.7407
4.26679	5.7698
4.24583	5.8078
4.22506	5.8398
4.2045	5.8606
4.18414	5.8869
4.16398	5.9094
4.14401	5.9228
4.12423	5.9497
4.10464	5.9751
4.08523	5.9958
4.066	6.0205
4.04696	6.0481
4.02809	6.0683
4.0094	6.0972
3.99088	6.1013
3.97253	6.1218
3.95435	6.1384
3.93634	6.1592
3.91848	6.1843
3.90079	6.2109
3.88326	6.2248
3.86589	6.2319
3.84867	6.2483
3.8316	6.2666
3.81468	6.2807
3.79791	6.2988
3.78129	6.3086
3.76482	6.3244
3.74848	6.3403
3.73229	6.3501
3.71624	6.3501
3.70032	6.3606
3.68454	6.3633
3.6689	6.3672
3.65338	6.3711
3.638	6.3723
3.62275	6.3935
3.60762	6.3857
3.59262	6.384
3.57775	6.3721
3.56299	6.3437
3.54836	6.3118
3.53385	6.249
3.51945	6.0874
3.50517	5.6909
3.49101	5.8264
3.47696	5.8962
3.46303	5.9072
3.4492	5.7805
3.43549	5.5908
3.42188	5.249
3.40838	5.3293
3.39499	5.6321
3.38171	5.612
3.36852	5.7949
3.35544	6.0254
3.34246	6.1177
3.32958	6.1413
3.3168	6.1567
3.30411	6.1477
3.29153	6.1404
3.27903	6.116
3.26664	6.0879
3.25433	6.0681
3.24212	6.0459
3.23	6.0159
3.21797	5.9897
3.20603	5.9612
3.19418	5.9223
3.18241	5.8808
3.17074	5.8435
3.15914	5.8144
3.14763	5.7683
3.13621	5.7222
3.12487	5.6938
3.11361	5.6531
3.10243	5.6284
3.09133	5.5974
3.0803	5.5647
3.06936	5.5295
3.0585	5.5058
3.04771	5.4748
3.037	5.448
3.02636	5.4314
3.0158	5.4082
3.00531	5.3955
2.99489	5.3703
2.98454	5.3464
2.97427	5.3328
2.96407	5.3152
2.95393	5.3108
2.94387	5.2971
2.93387	5.2927
2.92394	5.2866
2.91408	5.282
2.90429	5.2888
2.89456	5.3061
2.88489	5.3005
2.87529	5.3076
2.86576	5.3284
2.85628	5.3596
2.84687	5.3689
2.83752	5.3913
2.82823	5.3684
2.81901	5.3843
2.80984	5.3774
2.80073	5.3872
2.79168	5.4133
2.78269	5.4665
2.77376	5.5315
2.76488	5.5981
2.75606	5.7043
2.7473	5.8528
2.73859	6.0344
2.72994	6.2126
2.72134	6.3152
2.7128	6.3887
2.70431	6.4404
2.69587	6.5542
2.68748	6.6457
2.67915	6.6711
2.67087	6.6999
2.66264	6.7021
2.65446	6.7178
2.64633	6.6914
2.63825	6.6926
2.63021	6.6943
2.62223	6.6799
2.6143	6.6506
2.60641	6.6435
2.59857	6.6262
2.59078	6.6225
2.58304	6.6028
2.57534	6.5901
2.56768	6.5566
2.56008	6.5644
2.55251	6.5395
2.54499	6.5161
2.53752	6.5024
2.53009	6.5007
2.5227	6.4919
2.51536	6.4609
2.50806	6.4563
2.5008	6.4243
2.49358	6.4187
2.4864	6.4162
2.47927	6.3999
2.47218	6.3794
2.46512	6.3677
2.45811	6.3745
2.45114	6.3791
2.4442	6.3674
2.43731	6.3452
2.43045	6.3286
2.42363	6.2993
2.41685	6.3203
2.41011	6.3313
2.40341	6.3179
2.39674	6.2866
2.39011	6.2617
2.38352	6.2275
2.37696	6.2554
2.37044	6.2458
2.36395	6.219
2.35751	6.2163
2.35109	6.1929
2.34471	6.1777
2.33836	6.1509
2.33205	6.1704
2.32578	6.1704
2.31953	6.1611
2.31332	6.1606
2.30714	6.165
2.301	6.1597
2.29489	6.1455
2.28881	6.1269
2.28276	6.1413
2.27675	6.1577
2.27076	6.1748
2.26481	6.147
2.25889	6.1841
2.253	6.2046
2.24714	6.168
2.24131	6.1738
2.23551	6.1865
2.22974	6.1714
2.224	6.1631
2.21829	6.1587
2.21261	6.157
2.20696	6.1523
2.20134	6.1372
2.19574	6.1611
2.19018	6.1645
2.18464	6.1572
2.17913	6.1343
2.17365	6.1689
2.16819	6.177
2.16277	6.1575
2.15737	6.1799
2.15199	6.1548
2.14665	6.1467
2.14133	6.1865
2.13603	6.198
2.13077	6.2102
2.12552	6.2427
2.12031	6.2197
2.11512	6.2209
2.10995	6.1955
2.10481	6.2397
2.0997	6.2373
2.09461	6.2619
2.08954	6.2463
2.0845	6.2588
2.07948	6.2695
