Name: Enstatite Mg2Si2O6
Type: Mineral
Class: Silicates
Subclass: Inosilicates (Chain Silicates) (Pyroxene Group)
Particle Size: Fine  (less than 2 Micrometers)
Sample No.: enstatite.1
Owner: JHU
Wavelength Range: IR
Origin: Sample from Frank Smith Mine, near Barkly Wes, South
Description: Sample was a single light green piece, apparently part of
Measurement: Transmission
X Units: Wavelength (micrometers)
Y Units: Transmittance (percent)
wavelength	value
25.0442	29.4609
24.3388	30.3515
23.6719	31.204
23.0407	23.416
22.4422	17.6425
21.8741	16.539
21.334	21.0107
20.8199	21.6464
20.33	17.5258
19.8627	13.2216
19.4163	14.5922
18.9896	21.6699
18.5812	22.7353
18.19	25.3837
17.815	28.2729
17.4551	32.7929
17.1094	43.7435
16.7772	51.2294
16.4576	56.9481
16.15	60.5765
15.8537	57.4249
15.568	51.7833
15.2925	53.2706
15.0265	65.7381
14.7697	65.9871
14.5214	58.4383
14.2814	64.7913
14.0492	69.2823
13.8244	61.9422
13.6067	70.3524
13.3957	69.2845
13.1912	72.5877
12.9929	72.0694
12.8004	68.0692
12.6135	61.8438
12.432	55.9715
12.2557	48.5743
12.0843	39.6801
11.9176	30.0851
11.7555	23.3798
11.5977	22.7285
11.444	26.2101
11.2944	27.8178
11.1487	25.488
11.0067	23.4262
10.8682	15.7229
10.7332	13.1059
10.6015	13.136
10.473	14.5312
10.3476	15.5019
10.2251	18.3437
10.1056	23.3447
9.98873	22.2143
9.87458	19.4301
9.763	22.1455
9.65392	24.0698
9.54724	20.8046
9.44291	15.9382
9.34082	15.2512
9.24091	16.7004
9.14312	18.685
9.04739	23.6369
8.95363	29.9484
8.8618	32.7438
8.77183	39.3656
8.68368	43.4608
8.59727	48.453
8.51257	51.8446
8.42951	54.8622
8.34807	57.5848
8.26819	60.096
8.18981	62.3228
8.11292	64.3414
8.03745	66.1907
7.96337	68.0362
7.89064	69.6392
7.81924	70.9168
7.74911	72.274
7.68023	73.409
7.61256	74.5801
7.54608	75.6849
7.48074	76.7083
7.41653	77.6224
7.35341	78.4778
7.29136	79.399
7.23034	80.1167
7.17033	81.1883
7.11132	81.6951
7.05327	82.0017
6.99616	82.6228
6.93996	83.3704
6.88467	83.7398
6.83024	84.1389
6.77667	84.5359
6.72393	85.0296
6.67201	85.4846
6.62089	85.9163
6.57054	86.534
6.52095	86.8821
6.4721	87.2449
6.42398	87.5054
6.37657	87.4756
6.32986	87.4009
6.28382	87.5398
6.23845	87.7058
6.19373	87.8767
6.14965	87.7854
6.10619	87.9822
6.06334	88.3391
6.02109	89.3001
5.97942	90.2639
5.93832	90.3501
5.89778	90.4929
5.8578	90.5867
5.81835	90.9136
5.77943	90.9758
5.74103	91.1299
5.70314	91.1604
5.66574	91.1753
5.62883	91.3137
5.5924	91.3967
5.55644	91.5547
5.52093	91.617
5.48588	91.614
5.45127	91.6211
5.41709	91.7813
5.38334	91.7561
5.35	91.9116
5.31708	91.8193
5.28456	91.8679
5.25243	91.7796
5.2207	91.7449
5.18934	91.572
5.15836	91.4412
5.12775	91.3982
5.09749	91.4275
5.0676	91.5032
5.03805	91.5418
5.00884	91.5769
4.97998	91.6038
4.95144	91.5623
4.92322	91.4924
4.89533	91.4241
4.86775	91.3152
4.84048	91.239
4.81351	91.2141
4.78684	91.2146
4.76047	91.157
4.73439	91.1311
4.70859	91.0852
4.68306	90.9719
4.65782	90.947
4.63284	90.9524
4.60814	90.9841
4.58369	90.8079
4.5595	90.7649
4.53557	90.6419
4.51188	90.5154
4.48845	90.4734
4.46525	90.3377
4.44229	90.2
4.41957	90.0969
4.39708	89.9802
4.37481	89.9314
4.35277	89.7776
4.33096	89.6677
4.30935	89.5081
4.28797	89.384
4.26679	89.2407
4.24583	89.1013
4.22506	88.9861
4.2045	88.8782
4.18414	88.8042
4.16398	88.5906
4.14401	88.388
4.12423	88.293
4.10464	88.1404
4.08523	87.9964
4.066	87.8506
4.04696	87.6848
4.02809	87.5003
4.0094	87.3643
3.99088	87.2073
3.97253	87.0181
3.95435	86.919
3.93634	86.8089
3.91848	86.6677
3.90079	86.554
3.88326	86.3784
3.86589	86.1775
3.84867	86.0471
3.8316	85.886
3.81468	85.7278
3.79791	85.5945
3.78129	85.4529
3.76482	85.3023
3.74848	85.124
3.73229	84.959
3.71624	84.8025
3.70032	84.6314
3.68454	84.4268
3.6689	84.2078
3.65338	84.0916
3.638	83.9265
3.62275	83.7393
3.60762	83.4886
3.59262	83.3304
3.57775	83.1885
3.56299	83.0301
3.54836	82.8186
3.53385	82.6072
3.51945	82.4073
3.50517	82.3401
3.49101	81.9861
3.47696	81.7784
3.46303	81.6101
3.4492	81.4131
3.43549	81.3924
3.42188	81.25
3.40838	80.8828
3.39499	80.7254
3.38171	80.6973
3.36852	80.4685
3.35544	80.2054
3.34246	80.1416
3.32958	80.0196
3.3168	79.8663
3.30411	79.6673
3.29153	79.5179
3.27903	79.2705
3.26664	79.0901
3.25433	78.9659
3.24212	78.8243
3.23	78.5188
3.21797	78.4519
3.20603	78.2356
3.19418	78.0779
3.18241	77.7908
3.17074	77.6739
3.15914	77.3914
3.14763	77.127
3.13621	76.9075
3.12487	76.6912
3.11361	76.5013
3.10243	76.2461
3.09133	75.9512
3.0803	75.6424
3.06936	75.4329
3.0585	75.0616
3.04771	74.8631
3.037	74.6551
3.02636	74.4402
3.0158	74.1583
3.00531	73.8106
2.99489	73.5482
2.98454	73.2542
2.97427	72.8826
2.96407	72.4471
2.95393	72.2283
2.94387	72.0145
2.93387	71.679
2.92394	71.5062
2.91408	71.3719
2.90429	71.241
2.89456	71.1009
2.88489	70.9158
2.87529	70.7542
2.86576	70.5921
2.85628	70.4598
2.84687	70.3607
2.83752	70.1155
2.82823	70.0862
2.81901	70.0662
2.80984	69.8748
2.80073	69.7191
2.79168	69.6951
2.78269	69.5389
2.77376	69.5291
2.76488	69.4686
2.75606	69.2684
2.7473	68.8924
2.73859	68.6248
2.72994	67.8797
2.72134	66.9783
2.7128	64.8387
2.70431	64.5487
2.69587	67.0194
2.68748	68.8182
2.67915	69.7093
2.67087	70.0433
2.66264	69.9383
2.65446	69.8973
2.64633	69.7986
2.63825	69.5565
2.63021	69.6463
2.62223	69.4085
2.6143	69.2596
2.60641	69.096
2.59857	69.0609
2.59078	68.9803
2.58304	68.9202
2.57534	68.5916
2.56768	68.3382
2.56008	68.4051
2.55251	68.0526
2.54499	67.9315
2.53752	67.9588
2.53009	67.5701
2.5227	67.3499
2.51536	67.2562
2.50806	67.16
2.5008	66.9061
2.49358	66.8929
2.4864	66.5936
2.47927	66.5106
2.47218	66.367
2.46512	66.328
2.45811	66.0828
2.45114	66.0184
2.4442	65.742
2.43731	65.6629
2.43045	65.5311
2.42363	65.2694
2.41685	65.1444
2.41011	65.2117
2.40341	64.8924
2.39674	64.6737
2.39011	64.6561
2.38352	64.3475
2.37696	64.3397
2.37044	63.992
2.36395	64.1307
2.35751	63.9461
2.35109	63.911
2.34471	63.7674
2.33836	63.494
2.33205	63.3133
2.32578	63.0409
2.31953	63.1532
2.31332	63.1532
2.30714	62.8241
2.301	62.7743
2.29489	62.7811
2.28881	62.4803
2.28276	62.1346
2.27675	62.0838
2.27076	61.9784
2.26481	61.8846
2.25889	61.8758
2.253	61.7039
2.24714	61.661
2.24131	61.7225
2.23551	61.0936
2.22974	61.3436
2.224	61.1698
2.21829	61.2166
2.21261	60.953
2.20696	60.9959
2.20134	60.6659
2.19574	60.5077
2.19018	60.5047
2.18464	60.5623
2.17913	60.0936
2.17365	60.2733
2.16819	60.2782
2.16277	60.4891
2.15737	59.9891
2.15199	59.8446
2.14665	59.9842
2.14133	59.6053
2.13603	59.6571
2.13077	59.3563
2.12552	59.4432
2.12031	59.6561
2.11512	59.1766
2.10995	59.3133
2.10481	59.0116
2.0997	59.1805
2.09461	59.0711
2.08954	58.7196
2.0845	58.9803
2.07948	58.8573
