Name: Hornblende Ca2(Fe2+,Mg)4Al(Si7,Al)O22(OH,F)2
Type: Mineral
Class: Silicates
Subclass: Inosilicates (Amphibole Group)
Particle Size: Fine  (less than 2 micrometers)
Sample No.: hornblen.2
Owner: JHU
Wavelength Range: IR
Origin: Kragero, Norway via the Smithsonian (sample no. NMNH
Description: Sample was a fragment of a black crystal, contaminated
Measurement: Transmission
X Units: Wavelength (micrometers)
Y Units: Transmittance (percent)
wavelength	value
25.0442	57.5311
24.3388	52.8358
23.6719	46.2831
23.0407	37.2421
22.4422	28.0566
21.8741	21.4433
21.334	21.4472
20.8199	29.2597
20.33	39.8397
19.8627	34.6767
19.4163	35.4628
18.9896	41.7245
18.5812	48.7577
18.19	55.4364
17.815	68.3289
17.4551	75.6463
17.1094	79.7273
16.7772	81.6101
16.4576	81.9539
16.15	81.7234
15.8537	80.9085
15.568	77.5726
15.2925	76.2034
15.0265	74.4119
14.7697	74.8421
14.5214	71.8694
14.2814	77.5706
14.0492	81.0721
13.8244	80.8592
13.6067	78.512
13.3957	73.8514
13.1912	70.0682
12.9929	76.4686
12.8004	81.7693
12.6135	83.596
12.432	83.7327
12.2557	82.7347
12.0843	80.51
11.9176	76.8006
11.7555	71.8358
11.5977	67.1702
11.444	61.7157
11.2944	54.2352
11.1487	46.8231
11.0067	38.1103
10.8682	30.6098
10.7332	30.7055
10.6015	24.3417
10.473	22.6874
10.3476	25.1672
10.2251	25.5158
10.1056	22.5361
9.98873	24.214
9.87458	28.7385
9.763	34.5275
9.65392	36.3
9.54724	33.005
9.44291	32.5346
9.34082	35.4657
9.24091	40.2694
9.14312	39.6
9.04739	38.5414
8.95363	45.0599
8.8618	53.8148
8.77183	62.2664
8.68368	69.4754
8.59727	73.7286
8.51257	76.334
8.42951	78.7205
8.34807	80.9139
8.26819	82.9392
8.18981	84.5232
8.11292	85.7107
8.03745	86.6533
7.96337	87.7171
7.89064	88.5506
7.81924	89.0794
7.74911	89.6243
7.68023	89.9795
7.61256	90.4502
7.54608	90.8753
7.48074	91.197
7.41653	91.4822
7.35341	91.718
7.29136	91.9314
7.23034	91.864
7.17033	92.634
7.11132	92.919
7.05327	92.9558
6.99616	93.2512
6.93996	93.575
6.88467	93.637
6.83024	93.7432
6.77667	93.8262
6.72393	94
6.67201	94.2383
6.62089	94.3408
6.57054	94.5911
6.52095	94.6209
6.4721	94.7197
6.42398	94.6863
6.37657	94.5779
6.32986	94.3445
6.28382	94.0596
6.23845	93.6973
6.19373	92.8301
6.14965	92.0515
6.10619	92.1624
6.06334	92.8337
6.02109	94.4861
5.97942	95.5789
5.93832	95.4001
5.89778	95.3914
5.8578	95.4961
5.81835	95.748
5.77943	95.9365
5.74103	96.0994
5.70314	96.167
5.66574	96.1582
5.62883	96.1619
5.5924	96.2031
5.55644	96.2598
5.52093	96.3699
5.48588	96.4375
5.45127	96.4944
5.41709	96.5354
5.38334	96.5095
5.35	96.5088
5.31708	96.53
5.28456	96.5583
5.25243	96.5891
5.2207	96.6641
5.18934	96.7891
5.15836	96.7117
5.12775	96.6648
5.09749	96.6777
5.0676	96.6201
5.03805	96.6833
5.00884	96.6689
4.97998	96.7097
4.95144	96.7568
4.92322	96.7727
4.89533	96.8564
4.86775	96.876
4.84048	96.9072
4.81351	96.9521
4.78684	96.9766
4.76047	97.0019
4.73439	97.0447
4.70859	97.0564
4.68306	97.0496
4.65782	97.0801
4.63284	97.1436
4.60814	97.2627
4.58369	97.1396
4.5595	97.1738
4.53557	97.1589
4.51188	97.0662
4.48845	97.083
4.46525	97.0281
4.44229	97.0251
4.41957	97.0359
4.39708	96.9988
4.37481	97.0041
4.35277	96.9465
4.33096	96.9441
4.30935	96.948
4.28797	96.9182
4.26679	96.8909
4.24583	96.9011
4.22506	96.8293
4.2045	96.779
4.18414	96.8137
4.16398	96.7576
4.14401	96.7161
4.12423	96.7346
4.10464	96.7126
4.08523	96.6912
4.066	96.6125
4.04696	96.615
4.02809	96.6194
4.0094	96.5442
3.99088	96.4866
3.97253	96.321
3.95435	96.4182
3.93634	96.4558
3.91848	96.4421
3.90079	96.408
3.88326	96.3079
3.86589	96.2664
3.84867	96.2952
3.8316	96.2288
3.81468	96.2546
3.79791	96.137
3.78129	96.0989
3.76482	96.0808
3.74848	96.0251
3.73229	95.9646
3.71624	95.9553
3.70032	95.8127
3.68454	95.7664
3.6689	95.7234
3.65338	95.6863
3.638	95.7029
3.62275	95.5789
3.60762	95.5266
3.59262	95.4968
3.57775	95.4558
3.56299	95.3513
3.54836	95.2253
3.53385	95.1643
3.51945	95.1155
3.50517	94.9978
3.49101	94.8494
3.47696	94.801
3.46303	94.7283
3.4492	94.658
3.43549	94.5315
3.42188	94.4202
3.40838	94.1873
3.39499	94.3064
3.38171	94.3191
3.36852	94.3381
3.35544	94.0642
3.34246	94.072
3.32958	94.0691
3.3168	93.9451
3.30411	94.0491
3.29153	93.9358
3.27903	93.7678
3.26664	93.6433
3.25433	93.489
3.24212	93.5125
3.23	93.4334
3.21797	93.3123
3.20603	93.1111
3.19418	93.0173
3.18241	92.8474
3.17074	92.5711
3.15914	92.4021
3.14763	92.1336
3.13621	91.9534
3.12487	91.7796
3.11361	91.4588
3.10243	91.1292
3.09133	90.7463
3.0803	90.4788
3.06936	90.2752
3.0585	89.992
3.04771	89.6365
3.037	89.3533
3.02636	89.1228
3.0158	88.655
3.00531	88.0808
2.99489	87.4041
2.98454	86.7009
2.97427	85.7722
2.96407	84.782
2.95393	83.9275
2.94387	83.2439
2.93387	82.7752
2.92394	82.3806
2.91408	82.2693
2.90429	82.3465
2.89456	82.5808
2.88489	82.9666
2.87529	83.1814
2.86576	83.5428
2.85628	83.9256
2.84687	84.4842
2.83752	85.0955
2.82823	85.7693
2.81901	86.3982
2.80984	86.8924
2.80073	87.3875
2.79168	88.0711
2.78269	88.7361
2.77376	89.2381
2.76488	89.7205
2.75606	90.1257
2.7473	90.3982
2.73859	90.2615
2.72994	89.2615
2.72134	86.5086
2.7128	91.5017
2.70431	91.5789
2.69587	91.8718
2.68748	92.325
2.67915	92.5681
2.67087	92.7937
2.66264	92.6765
2.65446	92.6462
2.64633	92.6912
2.63825	92.8132
2.63021	92.6257
2.62223	92.4646
2.6143	92.6209
2.60641	92.4666
2.59857	92.4539
2.59078	92.5271
2.58304	92.3982
2.57534	92.4255
2.56768	92.3406
2.56008	92.4763
2.55251	92.2742
2.54499	92.0632
2.53752	92.282
2.53009	92.1609
2.5227	91.9451
2.51536	91.9412
2.50806	92.1033
2.5008	92.0056
2.49358	91.9451
2.4864	92.0447
2.47927	92.0076
2.47218	92.0369
2.46512	91.9607
2.45811	91.9099
2.45114	91.8806
2.4442	91.6755
2.43731	91.7302
2.43045	91.6677
2.42363	91.5896
2.41685	91.5056
2.41011	91.7341
2.40341	91.5798
2.39674	91.5232
2.39011	91.5193
2.38352	91.449
2.37696	91.5545
2.37044	91.449
2.36395	91.5017
2.35751	91.3709
2.35109	91.533
2.34471	91.3084
2.33836	91.1189
2.33205	91.1209
2.32578	91.197
2.31953	91.3357
2.31332	91.1365
2.30714	91.1189
2.301	91.1404
2.29489	91.1658
2.28881	91.2888
2.28276	91.2029
2.27675	91.0095
2.27076	91.1423
2.26481	91.1326
2.25889	91.0896
2.253	90.9334
2.24714	91.0349
2.24131	90.9959
2.23551	90.9158
2.22974	90.9939
2.224	90.6248
2.21829	90.7205
2.21261	90.8435
2.20696	90.8513
2.20134	90.783
2.19574	90.6638
2.19018	90.5466
2.18464	90.658
2.17913	90.4959
2.17365	90.8377
2.16819	90.533
2.16277	90.6658
2.15737	90.7498
2.15199	90.3377
2.14665	90.3377
2.14133	90.4568
2.13603	90.4724
2.13077	90.5505
2.12552	90.9802
2.12031	90.3123
2.11512	90.363
2.10995	90.2654
2.10481	90.2146
2.0997	90.6404
2.09461	90.6326
2.08954	90.738
2.0845	90.3709
2.07948	90.3943
