Name: Hedenbergite CaFe+2Si2O6
Type: Mineral
Class: Silicates
Subclass: Inosilicates (Single chain Pyroxene Group)
Particle Size: Coarse  (74-250 micrometers)
Sample No.: hedenber.1
Owner: JHU
Wavelength Range: IR
Origin: Eureka Mine, 2nd Level, Sub-level 1, 135 N, 645E, Ducktown,
Description: The sample was made up of three large pieces and three
Measurement: Bidirectional reflectance
X Units: Wavelength (micrometers)
Y Units: Reflectance (percent)
wavelength	value
25.0442	7.5898
24.3388	7.5813
23.6719	6.6128
23.0407	7.2265
22.4422	7.3252
21.8741	8.3594
21.334	9.083
20.8199	9.4868
20.33	8.9736
19.8627	9.5962
19.4163	9.7656
18.9896	9.5349
18.5812	10.0935
18.19	10.5932
17.815	10.6277
17.4551	9.6448
17.1094	6.9016
16.7772	4.0962
16.4576	1.904
16.15	1.5586
15.8537	2.0725
15.568	2.3545
15.2925	1.7705
15.0265	2.1257
14.7697	2.1936
14.5214	2.0503
14.2814	2.2117
14.0492	2.4121
13.8244	2.5637
13.6067	2.7036
13.3957	2.7854
13.1912	2.8728
12.9929	3.0085
12.8004	3.144
12.6135	3.2546
12.432	3.4424
12.2557	3.7392
12.0843	4.0913
11.9176	4.6999
11.7555	5.9263
11.5977	7.1577
11.444	7.7297
11.2944	8.0498
11.1487	8.2864
11.0067	8.6843
10.8682	9.362
10.7332	8.2287
10.6015	8.3896
10.473	9.0683
10.3476	9.8591
10.2251	7.749
10.1056	4.0444
9.98873	3.7607
9.87458	4.6245
9.763	4.5102
9.65392	4.2287
9.54724	4.3354
9.44291	5.4997
9.34082	6.9599
9.24091	7.4743
9.14312	7.7514
9.04739	8.0947
8.95363	8.5491
8.8618	8.8098
8.77183	8.5266
8.68368	6.5688
8.59727	4.5137
8.51257	2.5259
8.42951	1.1135
8.34807	0.7397
8.26819	0.9045
8.18981	1.0518
8.11292	1.2163
8.03745	1.3716
7.96337	1.552
7.89064	1.7161
7.81924	1.8774
7.74911	2.0972
7.68023	2.2808
7.61256	2.4368
7.54608	2.5427
7.48074	2.698
7.41653	2.8418
7.35341	2.8965
7.29136	2.8638
7.23034	2.9045
7.17033	3.0395
7.11132	3.2612
7.05327	3.5076
6.99616	3.6677
6.93996	3.7678
6.88467	3.7544
6.83024	3.5378
6.77667	3.4045
6.72393	3.1565
6.67201	2.9665
6.62089	2.9184
6.57054	2.7331
6.52095	2.4744
6.4721	2.4145
6.42398	2.5078
6.37657	2.7678
6.32986	2.9597
6.28382	3.0134
6.23845	3.1667
6.19373	3.3047
6.14965	3.2331
6.10619	3.0832
6.06334	3.3188
6.02109	3.5681
5.97942	4.0732
5.93832	4.9707
5.89778	5.7466
5.8578	5.8918
5.81835	6.2129
5.77943	6.7624
5.74103	7.1806
5.70314	7.4736
5.66574	7.6533
5.62883	7.6643
5.5924	7.6037
5.55644	7.5022
5.52093	7.3179
5.48588	6.9136
5.45127	6.3054
5.41709	5.685
5.38334	5.3784
5.35	5.1135
5.31708	4.9551
5.28456	4.802
5.25243	4.8804
5.2207	4.887
5.18934	4.6496
5.15836	4.3625
5.12775	4.0254
5.09749	3.6489
5.0676	3.5561
5.03805	3.883
5.00884	4.2788
4.97998	4.4158
4.95144	4.457
4.92322	4.5425
4.89533	4.6208
4.86775	4.7869
4.84048	5.1057
4.81351	5.4543
4.78684	5.801
4.76047	5.9536
4.73439	6.3428
4.70859	6.9482
4.68306	7.4763
4.65782	7.7629
4.63284	8.2734
4.60814	8.7942
4.58369	9.4221
4.5595	9.9753
4.53557	10.622
4.51188	11.3076
4.48845	11.664
4.46525	11.8874
4.44229	12.0503
4.41957	12.1994
4.39708	12.3313
4.37481	12.4507
4.35277	12.5715
4.33096	12.6709
4.30935	12.7685
4.28797	12.8691
4.26679	12.9699
4.24583	13.0608
4.22506	13.1408
4.2045	13.1985
4.18414	13.2614
4.16398	13.3149
4.14401	13.3388
4.12423	13.3701
4.10464	13.4192
4.08523	13.4626
4.066	13.4826
4.04696	13.4978
4.02809	13.5002
4.0094	13.5105
3.99088	13.4975
3.97253	13.5183
3.95435	13.5659
3.93634	13.6233
3.91848	13.6626
3.90079	13.6941
3.88326	13.7121
3.86589	13.719
3.84867	13.7285
3.8316	13.7404
3.81468	13.7529
3.79791	13.7527
3.78129	13.7605
3.76482	13.77
3.74848	13.7719
3.73229	13.7693
3.71624	13.7548
3.70032	13.7568
3.68454	13.7456
3.6689	13.708
3.65338	13.6902
3.638	13.6811
3.62275	13.6306
3.60762	13.6181
3.59262	13.5964
3.57775	13.5654
3.56299	13.5434
3.54836	13.4826
3.53385	13.448
3.51945	13.3774
3.50517	13.2673
3.49101	13.24
3.47696	13.217
3.46303	13.1936
3.4492	13.1389
3.43549	13.0749
3.42188	12.9702
3.40838	12.9084
3.39499	12.9463
3.38171	12.8994
3.36852	12.8899
3.35544	12.8432
3.34246	12.8403
3.32958	12.8005
3.3168	12.7448
3.30411	12.7014
3.29153	12.6294
3.27903	12.5451
3.26664	12.4533
3.25433	12.3535
3.24212	12.2409
3.23	12.1269
3.21797	12.0088
3.20603	11.885
3.19418	11.759
3.18241	11.6465
3.17074	11.5271
3.15914	11.4018
3.14763	11.2583
3.13621	11.1247
3.12487	10.9961
3.11361	10.8679
3.10243	10.7649
3.09133	10.643
3.0803	10.5468
3.06936	10.467
3.0585	10.3591
3.04771	10.2578
3.037	10.146
3.02636	10.0415
3.0158	9.9057
3.00531	9.7019
2.99489	9.5119
2.98454	9.3528
2.97427	9.229
2.96407	9.2334
2.95393	9.2768
2.94387	9.2727
2.93387	9.1709
2.92394	9.0051
2.91408	8.7553
2.90429	8.4621
2.89456	8.1736
2.88489	8.1526
2.87529	8.4399
2.86576	8.834
2.85628	8.9856
2.84687	8.8716
2.83752	8.6582
2.82823	8.5139
2.81901	8.602
2.80984	9.1338
2.80073	9.8188
2.79168	10.2275
2.78269	10.3276
2.77376	10.3679
2.76488	10.3806
2.75606	10.372
2.7473	10.3852
2.73859	10.8613
2.72994	11.4372
2.72134	11.7783
2.7128	12.3816
2.70431	12.5774
2.69587	12.7212
2.68748	12.7834
2.67915	12.8366
2.67087	12.8471
2.66264	12.8615
2.65446	12.8288
2.64633	12.8144
2.63825	12.7539
2.63021	12.697
2.62223	12.6479
2.6143	12.6379
2.60641	12.5798
2.59857	12.5329
2.59078	12.4836
2.58304	12.458
2.57534	12.3891
2.56768	12.3183
2.56008	12.2881
2.55251	12.206
2.54499	12.1274
2.53752	12.0766
2.53009	12.0234
2.5227	11.9179
2.51536	11.8701
2.50806	11.8037
2.5008	11.7402
2.49358	11.6552
2.4864	11.5725
2.47927	11.519
2.47218	11.4431
2.46512	11.3613
2.45811	11.3359
2.45114	11.2651
2.4442	11.1972
2.43731	11.1103
2.43045	11.0664
2.42363	10.9853
2.41685	10.9868
2.41011	10.9155
2.40341	10.8911
2.39674	10.8091
2.39011	10.7632
2.38352	10.7461
2.37696	10.6894
2.37044	10.6777
2.36395	10.6333
2.35751	10.5654
2.35109	10.5283
2.34471	10.4868
2.33836	10.426
2.33205	10.3823
2.32578	10.3493
2.31953	10.3486
2.31332	10.2805
2.30714	10.2768
2.301	10.2426
2.29489	10.239
2.28881	10.1924
2.28276	10.1438
2.27675	10.1067
2.27076	10.0981
2.26481	10.0893
2.25889	10.0283
2.253	10.0232
2.24714	9.9555
2.24131	9.9524
2.23551	9.9839
2.22974	9.9055
2.224	9.9258
2.21829	9.9336
2.21261	9.9201
2.20696	9.8781
2.20134	9.9035
2.19574	9.8677
2.19018	9.8667
2.18464	9.8408
2.17913	9.8059
2.17365	9.8066
2.16819	9.7895
2.16277	9.7854
2.15737	9.7778
2.15199	9.7134
2.14665	9.6701
2.14133	9.6797
2.13603	9.7073
2.13077	9.6401
2.12552	9.5942
2.12031	9.6924
2.11512	9.6748
2.10995	9.6367
2.10481	9.6279
2.0997	9.6115
2.09461	9.5949
2.08954	9.594
2.0845	9.6045
2.07948	9.5918
