Name: Calcite CaCO3
Type: Mineral
Class: Carbonates
Particle Size: Fine  (less than 2 Micrometers)
Sample No.: calcite.2
Owner: JHU
Wavelength Range: IR
Origin: Hunt and Salisbury Collection #48B; Sample from Cherokee
Description: No solid sample is available for the specimen.
Measurement: Transmission
X Units: Wavelength (micrometers)
Y Units: Transmittance (percent)
wavelength	value
25.044	84.4842
24.339	87.1873
23.672	89.2752
23.041	90.5955
22.442	92.3064
21.874	93.5896
21.334	94.2439
20.82	95.3279
20.33	96.2859
19.863	97.0115
19.416	97.6765
18.99	98.2693
18.581	98.6853
18.19	99.029
17.815	99.4822
17.455	99.4372
17.109	99.4412
16.777	99.5915
16.458	99.8044
16.15	99.9079
15.854	99.823
15.568	99.7429
15.292	99.5847
15.027	99.2849
14.77	98.678
14.521	97.74
14.281	95.5037
14.049	76.0252
13.824	99.6565
13.607	99.5452
13.396	99.0281
13.191	98.449
12.993	97.7795
12.8	97.197
12.614	96.7937
12.432	96.2136
12.256	95.3416
12.084	94.0847
11.918	91.9099
11.755	88.6018
11.598	81.2566
11.444	52.6625
11.294	74.3084
11.149	88.8299
11.007	90.405
10.868	90.8772
10.733	90.8342
10.602	90.7019
10.473	90.4075
10.348	89.9461
10.225	89.3264
10.106	88.6091
9.989	87.8045
9.875	87.0335
9.763	86.5633
9.654	86.0882
9.547	85.6761
9.443	85.283
9.341	84.8079
9.241	84.1971
9.143	84.0071
9.047	83.6477
8.954	83.0491
8.862	82.5027
8.772	81.7986
8.684	81.0313
8.597	80.2893
8.513	79.6707
8.43	79.0047
8.348	78.2813
8.268	77.3782
8.19	76.3309
8.113	75.0801
8.037	73.827
7.963	72.4109
7.891	70.8475
7.819	69.159
7.749	67.2618
7.68	65.0899
7.613	62.754
7.546	60.2928
7.481	57.3612
7.417	53.8793
7.353	49.7667
7.291	44.9337
7.23	39.3241
7.17	32.4191
7.111	27.1008
7.053	22.4064
6.996	22.373
6.94	24.371
6.885	26.8469
6.83	30.09
6.777	33.8388
6.724	38.7716
6.672	44.1942
6.621	49.3583
6.571	54.0033
6.521	58.1183
6.472	62.0567
6.424	65.7948
6.377	68.3826
6.33	70.3065
6.284	71.9112
6.238	73.6993
6.194	75.1258
6.15	76.3389
6.106	77.7225
6.063	78.7742
6.021	79.8767
5.979	80.7051
5.938	81.7078
5.898	82.5818
5.858	83.2381
5.818	84.1377
5.779	84.7322
5.741	85.4014
5.703	86.1707
5.666	87.0105
5.629	88.03
5.592	88.2322
5.556	83.1355
5.521	87.3467
5.486	88.8252
5.451	89.6926
5.417	90.4522
5.383	91.0354
5.35	91.6472
5.317	92.125
5.285	92.6309
5.252	93.0986
5.221	93.542
5.189	93.9675
5.158	94.3555
5.128	94.7383
5.097	95.0439
5.068	95.4636
5.038	95.7766
5.009	96.1082
4.98	96.4004
4.951	96.7002
4.923	96.9893
4.895	97.2556
4.868	97.4941
4.84	97.7253
4.814	97.9521
4.787	98.1809
4.76	98.3594
4.734	98.5076
4.709	98.6081
4.683	98.6081
4.658	98.7195
4.633	98.9451
4.608	99.157
4.584	99.332
4.56	99.4714
4.536	99.5896
4.512	99.698
4.488	99.8
4.465	99.9245
4.442	100.024
4.42	100.112
4.397	100.205
4.375	100.311
4.353	100.341
4.331	100.433
4.309	100.501
4.288	100.563
4.267	100.607
4.246	100.652
4.225	100.703
4.205	100.675
4.184	100.705
4.164	100.722
4.144	100.709
4.124	100.675
4.105	100.643
4.085	100.579
4.066	100.424
4.047	100.138
4.028	99.2204
4.009	97.6384
3.991	94.3543
3.973	93.3318
3.954	95.1418
3.936	97.8088
3.918	98.3894
3.901	98.5788
3.883	98.7009
3.866	98.8171
3.849	98.9631
3.832	99.343
3.815	99.907
3.798	100.356
3.781	100.637
3.765	100.677
3.748	100.682
3.732	100.662
3.716	100.681
3.7	100.658
3.685	100.626
3.669	100.61
3.653	100.563
3.638	100.53
3.623	100.47
3.608	100.423
3.593	100.354
3.578	100.205
3.563	100.104
3.548	99.9636
3.534	99.5964
3.519	98.7385
3.505	97.7522
3.491	97.1189
3.477	96.6863
3.463	98.0705
3.449	98.4514
3.435	98.365
3.422	98.1326
3.408	98.1179
3.395	98.1838
3.382	98.0124
3.369	97.9851
3.355	97.6023
3.342	98.2878
3.33	99.3347
3.317	99.512
3.304	99.487
3.292	99.4597
3.279	99.4514
3.267	99.3679
3.254	99.301
3.242	99.2327
3.23	99.1716
3.218	99.0876
3.206	99.0705
3.194	98.9788
3.182	98.9626
3.171	98.9822
3.159	98.8791
3.148	98.8845
3.136	98.8738
3.125	98.8826
3.114	98.8845
3.102	98.8635
3.091	98.9319
3.08	98.9548
3.069	98.9631
3.058	98.9534
3.048	98.9587
3.037	98.9006
3.026	98.9529
3.016	98.9421
3.005	98.9548
2.995	99.0398
2.985	99.0837
2.974	99.1296
2.964	99.1384
2.954	99.1726
2.944	99.1648
2.934	99.2683
2.924	99.2644
2.914	99.2195
2.904	99.1775
2.895	99.2615
2.885	99.2663
2.875	99.3259
2.866	99.2419
2.856	99.2263
2.847	99.1521
2.838	99.1453
2.828	99.0701
2.819	99.0232
2.81	98.9079
2.801	98.8415
2.792	98.7312
2.783	98.5788
2.774	98.3865
2.765	98.2165
2.756	98.1804
2.747	97.9617
2.739	98.0593
2.73	97.9275
2.721	97.9109
2.713	97.8484
2.704	97.821
2.696	97.9333
2.687	97.8914
2.679	97.8826
2.671	98.0134
2.663	97.9001
2.654	97.8181
2.646	97.7234
2.638	97.6687
2.63	97.7927
2.622	97.6287
2.614	97.657
2.606	97.7117
2.599	97.5828
2.591	97.4978
2.583	97.5349
2.575	97.4412
2.568	97.4529
2.56	97.4148
2.553	97.3748
2.545	97.2927
2.538	97.3494
2.53	97.2234
2.523	97.3123
2.515	97.2546
2.508	97.1482
2.501	97.0974
2.494	97.0623
2.486	97.1208
2.479	97.031
2.472	97.0974
2.465	97.1208
2.458	97.0896
2.451	97.033
2.444	96.9021
2.437	96.8982
2.43	96.8669
2.424	96.8474
2.417	96.7439
2.41	96.7126
2.403	96.7283
2.397	96.7419
2.39	96.7654
2.384	96.5876
2.377	96.6267
2.37	96.6638
2.364	96.6091
2.358	96.4255
2.351	96.4685
2.345	96.488
2.338	96.2576
2.332	96.3533
2.326	96.3611
2.32	96.2419
2.313	96.3142
2.307	96.1912
2.301	96.3005
2.295	96.2419
2.289	96.2185
2.283	96.2205
2.277	96.1345
2.271	95.9685
2.265	95.9607
2.259	95.9841
2.253	96.031
2.247	95.9919
2.241	95.8767
2.236	95.9294
2.23	95.8533
2.224	95.8201
2.218	95.7732
2.213	95.9451
2.207	95.8005
2.201	95.5798
2.196	95.5857
2.19	95.6833
2.185	95.6345
2.179	95.533
2.174	95.4607
2.168	95.5701
2.163	95.4451
2.157	95.283
2.152	95.4861
2.147	95.4294
2.141	95.3279
2.136	95.3044
2.131	95.3279
2.126	95.1287
2.12	95.2048
2.115	95.1052
2.11	94.9685
2.105	95.3064
2.1	95.2126
2.095	95.0623
2.09	95.2029
2.085	94.9529
2.079	95.0349
