Name: ALH 83100
Type: Stony Meteorites
Class: Carbonaceous chondrite
Subclass: CM2
Particle Size: 0-75 micrometers
Sample No.: ALH 83100
Owner: JHU
Origin: Meteorite found in Antarctica in 1983..  Smithsonian sample USNM No.
Description: None.
Measurement: Bidirectional reflectance
X Units: Wavelength (micrometers)
Y Units: Reflectance (percent)
wavelength	value
25.044	0.7693
24.339	0.8481
23.672	0.8748
23.041	0.9065
22.442	0.9272
21.874	0.9324
21.334	0.9204
20.82	0.8374
20.33	0.7759
19.863	0.6667
19.416	0.5498
18.99	0.4158
18.581	0.365
18.19	0.3877
17.815	0.3738
17.455	0.4033
17.109	0.4402
16.777	0.4734
16.458	0.4712
16.15	0.4768
15.854	0.4871
15.568	0.4634
15.292	0.4185
15.027	0.3857
14.77	0.3616
14.521	0.3335
14.281	0.3291
14.049	0.3374
13.824	0.353
13.607	0.3628
13.396	0.4128
13.191	0.4424
12.993	0.4736
12.8	0.5359
12.614	0.5828
12.432	0.636
12.256	0.6843
12.084	0.7383
11.918	0.7903
11.755	0.814
11.598	0.8523
11.444	0.834
11.294	0.8328
11.149	0.8086
11.007	0.7498
10.868	0.6936
10.733	0.6501
10.602	0.6345
10.473	0.6191
10.348	0.6008
10.225	0.5942
10.106	0.5918
9.989	0.5908
9.875	0.5864
9.763	0.5669
9.654	0.5479
9.547	0.4924
9.443	0.4229
9.341	0.3586
9.241	0.3237
9.143	0.2888
9.047	0.2861
8.954	0.2983
8.862	0.3083
8.772	0.3342
8.684	0.3635
8.597	0.3965
8.513	0.4382
8.43	0.4702
8.348	0.519
8.268	0.6001
8.19	0.7043
8.113	0.8232
8.037	0.9392
7.963	1.0339
7.891	1.1169
7.819	1.1785
7.749	1.2178
7.68	1.2532
7.613	1.2754
7.546	1.2983
7.481	1.3091
7.417	1.3201
7.353	1.3237
7.291	1.3184
7.23	1.3152
7.17	1.3235
7.111	1.3332
7.053	1.3511
6.996	1.3667
6.94	1.3748
6.885	1.3777
6.83	1.3962
6.777	1.4297
6.724	1.4651
6.672	1.4878
6.621	1.5088
6.571	1.5261
6.521	1.532
6.472	1.5322
6.424	1.5273
6.377	1.522
6.33	1.4995
6.284	1.4748
6.239	1.4402
6.194	1.3953
6.15	1.3506
6.106	1.3508
6.063	1.3657
6.021	1.4033
5.979	1.4507
5.938	1.5068
5.898	1.5779
5.858	1.6382
5.818	1.6829
5.779	1.7273
5.741	1.7607
5.703	1.7871
5.666	1.8096
5.629	1.8262
5.592	1.8401
5.556	1.8455
5.521	1.863
5.486	1.8899
5.451	1.9214
5.417	1.946
5.383	1.9705
5.35	1.9866
5.317	2.0039
5.285	2.0215
5.252	2.0371
5.221	2.0513
5.189	2.0615
5.158	2.0737
5.128	2.0854
5.098	2.0977
5.068	2.1069
5.038	2.1145
5.009	2.1223
4.98	2.1331
4.951	2.1465
4.923	2.1475
4.895	2.1565
4.868	2.1623
4.84	2.1667
4.814	2.1721
4.787	2.1814
4.761	2.186
4.734	2.1919
4.709	2.1965
4.683	2.2056
4.658	2.208
4.633	2.2161
4.608	2.2227
4.584	2.2305
4.559	2.227
4.536	2.2317
4.512	2.2312
4.488	2.2353
4.465	2.2405
4.442	2.2405
4.42	2.2422
4.397	2.2388
4.375	2.239
4.353	2.2388
4.331	2.2371
4.309	2.2383
4.288	2.231
4.267	2.2339
4.246	2.2344
4.225	2.2339
4.205	2.2366
4.184	2.231
4.164	2.2319
4.144	2.2307
4.124	2.2329
4.105	2.2317
4.085	2.2253
4.066	2.2258
4.047	2.2168
4.028	2.2136
4.009	2.197
3.991	2.176
3.973	2.1567
3.954	2.1516
3.936	2.1516
3.918	2.1484
3.901	2.1514
3.883	2.1457
3.866	2.1379
3.849	2.1352
3.832	2.1274
3.815	2.1125
3.798	2.0996
3.781	2.0962
3.765	2.093
3.748	2.084
3.732	2.0735
3.716	2.0654
3.7	2.0505
3.684	2.0422
3.669	2.0308
3.653	2.0227
3.638	2.0095
3.623	1.9985
3.608	1.9878
3.593	1.9751
3.578	1.9648
3.563	1.9487
3.548	1.9311
3.534	1.9104
3.519	1.8896
3.505	1.8577
3.491	1.8318
3.477	1.8049
3.463	1.7983
3.449	1.781
3.436	1.7551
3.422	1.7312
3.408	1.7146
3.395	1.7082
3.382	1.6892
3.369	1.6848
3.355	1.6851
3.342	1.6755
3.33	1.6623
3.317	1.6438
3.304	1.6313
3.292	1.6167
3.279	1.6035
3.267	1.5889
3.254	1.5635
3.242	1.5435
3.23	1.5234
3.218	1.5017
3.206	1.4849
3.194	1.4563
3.182	1.4341
3.171	1.4038
3.159	1.3811
3.148	1.3606
3.136	1.3298
3.125	1.3071
3.114	1.2837
3.102	1.2595
3.091	1.2368
3.08	1.2185
3.069	1.1941
3.059	1.1741
3.048	1.154
3.037	1.1355
3.026	1.1138
3.016	1.1023
3.005	1.0781
2.995	1.0642
2.985	1.0452
2.974	1.031
2.964	1.021
2.954	0.9973
2.944	0.9861
2.934	0.9695
2.924	0.9592
2.914	0.9451
2.904	0.9424
2.895	0.9314
2.885	0.9204
2.875	0.9014
2.866	0.8921
2.856	0.8721
2.847	0.8564
2.837	0.8274
2.828	0.8105
2.819	0.783
2.81	0.7637
2.801	0.738
2.792	0.7207
2.783	0.7031
2.774	0.6924
2.765	0.679
2.756	0.6655
2.747	0.6636
2.739	0.6631
2.73	0.6721
2.721	0.688
2.713	0.8022
2.704	1.1152
2.696	1.5759
2.688	1.8235
2.679	1.9045
2.671	1.9285
2.663	1.9556
2.655	1.9668
2.646	1.978
2.638	1.9829
2.63	1.9841
2.622	1.9907
2.614	1.9824
2.606	1.9827
2.599	1.9883
2.591	1.9753
2.583	1.9778
2.575	1.9739
2.568	1.9778
2.56	1.9709
2.553	1.9744
2.545	1.9724
2.538	1.9624
2.53	1.958
2.523	1.9709
2.515	1.9709
2.508	1.9641
2.501	1.9553
2.494	1.9578
2.486	1.9634
2.479	1.9451
2.472	1.9497
2.465	1.9485
2.458	1.9316
2.451	1.9185
2.444	1.9309
2.437	1.9236
2.43	1.9194
2.424	1.9336
2.417	1.9394
2.41	1.9326
2.403	1.9394
2.397	1.9307
2.39	1.9311
2.384	1.9187
2.377	1.9272
2.37	1.9351
2.364	1.9287
2.357	1.9292
2.351	1.9246
2.345	1.895
2.338	1.9045
2.332	1.8987
2.326	1.8967
2.32	1.9082
2.313	1.9119
2.307	1.9116
2.301	1.9036
2.295	1.9119
2.289	1.9131
2.283	1.9299
2.277	1.9199
2.271	1.9167
2.265	1.9065
2.259	1.9238
2.253	1.9143
2.247	1.9216
2.241	1.9114
2.236	1.9246
2.23	1.9121
2.224	1.9182
2.218	1.9329
2.213	1.9311
2.207	1.925
2.201	1.9265
2.196	1.9192
2.19	1.9363
2.185	1.916
2.179	1.907
2.174	1.9265
2.168	1.9258
2.163	1.9202
2.157	1.916
2.152	1.9128
2.147	1.9228
2.141	1.9097
2.136	1.9248
2.131	1.9272
2.126	1.9094
2.12	1.9182
2.115	1.8894
2.11	1.9216
2.105	1.8948
2.1	1.9031
2.095	1.9175
2.09	1.9094
2.084	1.9075
2.079	1.8904
