Name: Alkalic Syenite
Type: Rocks
Class: Igneous
Subclass: Intermediate
Particle Size: Solid
Sample No.: Syenite.H1
Owner: JHU
Origin: Golden Cycle Mine, near Victor, Teller County, Colorado, via
Description: A dark gray fine-grained rock spotted with white
Measurement: Directional (10 degree) hemispherical reflectance
X Units: Wavelength (micrometers)
Y Units: Reflectance (percent)
wavelength	value
14.0112	7.4868
13.7147	4.1629
13.4304	3.8768
13.1577	4.0491
12.8959	3.596
12.6443	3.5548
12.4023	3.7657
12.1694	4.4721
11.945	5.1644
11.7289	5.8969
11.5203	6.6082
11.3191	7.3036
11.1248	7.8717
10.937	8.7468
10.7555	9.7849
10.5799	11.1501
10.4099	13.2208
10.2454	16.1404
10.0859	19.0057
9.9313	21.6989
9.7814	22.3584
9.636	23.9132
9.4948	22.6443
9.3577	17.5096
9.2245	15.0155
9.095	13.4018
8.9691	12.3325
8.8467	13.0938
8.7275	13.5684
8.6116	12.9654
8.4986	12.3106
8.3886	11.0556
8.2814	7.8056
8.1769	4.0655
8.075	2.0721
7.9756	1.3236
7.8786	1.1044
7.784	1.0639
7.6916	1.1128
7.6014	1.1859
7.5133	1.2633
7.4272	1.38
7.343	1.4529
7.2607	1.5628
7.1803	1.6418
7.1016	1.811
7.0246	1.9324
6.9493	1.9943
6.8755	2.0595
6.8034	2.1028
6.7327	2.1429
6.6634	2.2449
6.5956	2.2821
6.5292	2.3044
6.464	2.3459
6.4002	2.3158
6.3376	2.38
6.2762	2.3138
6.216	2.3075
6.157	2.2558
6.099	2.2127
6.0421	2.3229
5.9863	2.3904
5.9315	2.4084
5.8777	2.5507
5.8249	2.6477
5.773	2.7031
5.722	2.7356
5.6719	2.7971
5.6227	2.8673
5.5744	2.9436
5.5268	3.0202
5.4801	3.1699
5.4341	3.2604
5.3889	3.3759
5.3445	3.4758
5.3008	3.5533
5.2578	3.6262
5.2154	3.7188
5.1738	3.8346
5.1328	3.9623
5.0925	4.0938
5.0528	4.1653
5.0137	4.2925
4.9752	4.394
4.9373	4.4196
4.9	4.4234
4.8632	4.4784
4.827	4.5319
4.7913	4.5363
4.7561	4.6062
4.7215	4.6772
4.6873	4.7496
4.6536	4.8483
4.6205	4.9594
4.5877	5.082
4.5555	5.2247
4.5237	5.3514
4.4923	5.5114
4.4614	5.6177
4.4309	5.7218
4.4008	5.8533
4.3711	5.959
4.3418	6.1068
4.3129	6.2493
4.2844	6.4
4.2563	6.5628
4.2285	6.6628
4.2011	6.8439
4.174	6.9408
4.1473	7.0603
4.1209	7.1613
4.0949	7.2563
4.0692	7.3551
4.0438	7.4002
4.0187	7.4896
3.994	7.4267
3.9695	7.4964
3.9453	7.5829
3.9214	7.6683
3.8979	7.6948
3.8746	7.7341
3.8515	7.728
3.8288	7.8052
3.8063	7.7719
3.7841	7.8103
3.7621	7.7397
3.7404	7.7208
3.7189	7.6865
3.6977	7.6498
3.6767	7.593
3.656	7.5532
3.6355	7.44
3.6152	7.4304
3.5951	7.3235
3.5753	7.2623
3.5557	7.1646
3.5363	7.0436
3.5171	6.8976
3.4981	6.7256
3.4793	6.6642
3.4607	6.6033
3.4423	6.4636
3.4241	6.2221
3.4061	6.2267
3.3883	6.2112
3.3707	6.1064
3.3533	6.0761
3.336	6.0413
3.3189	5.9636
3.302	5.8314
3.2853	5.7108
3.2687	5.6067
3.2523	5.5444
3.2361	5.4267
3.22	5.3675
3.204	5.2521
3.1883	5.1506
3.1727	5.0641
3.1572	4.9927
3.1419	4.9181
3.1268	4.8464
3.1117	4.7728
3.0969	4.6722
3.0821	4.6109
3.0675	4.5618
3.0531	4.533
3.0388	4.5161
3.0246	4.4662
3.0105	4.4733
2.9966	4.4203
2.9828	4.4238
2.9692	4.399
2.9556	4.3617
2.9422	4.3643
2.9289	4.3662
2.9157	4.3769
2.9027	4.4062
2.8897	4.4203
2.8769	4.4496
2.8642	4.5275
2.8516	4.4855
2.8391	4.5257
2.8267	4.6024
2.8144	4.6774
2.8022	4.746
2.7902	4.7548
2.7782	4.811
2.7664	4.8689
2.7546	5.0883
2.7429	5.6088
2.7314	6.2625
2.7199	6.8964
2.7085	7.4435
2.6973	8.2465
2.6861	8.8059
2.675	9.2737
2.664	9.5597
2.6531	9.719
2.6423	9.8864
2.6315	10.0345
2.6209	10.1449
2.6103	10.2173
2.5999	10.2541
2.5895	10.2665
2.5792	10.3054
2.569	10.2098
2.5588	10.1847
2.5487	10.0955
2.5388	10.0621
2.5289	10.1086
2.519	10.2161
2.5093	10.2649
2.4996	10.3792
2.49	10.3184
2.4805	10.4916
2.471	10.6043
2.4616	10.6968
2.4523	10.8719
2.4431	11.0576
2.4339	11.1907
2.4248	11.3501
2.4157	11.5192
2.4068	11.6491
2.3979	11.7722
2.389	11.8545
2.3802	11.982
2.3715	12.1763
2.3629	12.1387
2.3543	12.2766
2.3458	12.3719
2.3373	12.4249
2.3289	12.4823
2.3206	12.529
2.3123	12.6059
2.3041	12.6532
2.2959	12.6766
2.2878	12.715
2.2798	12.8257
2.2718	12.6951
2.2638	12.7919
2.2559	12.7654
2.2481	12.8245
2.2403	12.8522
2.2326	12.9626
2.225	12.9236
2.2173	13.0017
2.2098	12.9635
2.2023	12.9677
2.1948	12.982
2.1874	13.0457
2.18	13.087
2.1727	13.076
2.1655	13.0961
2.1583	13.1704
2.1511	13.0865
2.144	13.1221
2.1369	13.1088
2.1299	13.161
2.1229	13.0865
2.116	13.1561
2.1091	13.2501
2.1023	13.2018
2.0955	13.2241
2.0887	13.2278
2.082	13.187
2.06	13.1919
2.028	12.9566
1.996	12.7005
1.964	12.0489
1.932	10.7461
1.9	9.1316
1.868	12.9499
1.836	13.3574
1.804	13.2084
1.772	13.0177
1.74	13.3004
1.708	13.2961
1.676	13.2489
1.644	12.9722
1.612	12.8826
1.58	13.0172
1.548	12.8503
1.516	12.6541
1.484	12.4725
1.452	12.0292
1.42	11.3333
1.388	12.2577
1.356	12.3916
1.324	12.2886
1.292	12.2894
1.26	12.184
1.228	12.2267
1.196	12.0657
1.164	12.1625
1.132	12.2778
1.1	12.2426
1.068	12.6073
1.036	12.8063
1.004	12.8309
0.972	13.0567
0.94	13.1765
0.908	13.4816
0.876	13.8135
0.844	14.1039
0.812	14.1847
0.795	14.4464
0.787	14.5284
0.779	14.6096
0.771	14.6076
0.763	14.4733
0.755	14.5817
0.747	14.4023
0.739	14.1009
0.731	14.6843
0.723	14.643
0.715	14.6904
0.707	14.6785
0.699	14.6808
0.691	15.1844
0.683	14.6444
0.675	14.8902
0.667	14.9676
0.659	15.2067
0.651	15.1891
0.643	15.0767
0.635	14.9315
0.627	15.4448
0.619	15.0234
0.611	15.321
0.603	15.2181
0.595	15.0606
0.587	15.0816
0.579	15.3579
0.571	15.1359
0.563	15.1189
0.555	14.864
0.547	14.2979
0.539	14.1988
0.531	14.1947
0.523	14.2396
0.515	13.937
0.507	13.7587
0.499	13.679
0.491	13.098
0.483	13.1204
0.475	12.9413
0.467	12.7688
0.459	12.7399
0.451	12.4523
0.443	12.2848
0.435	11.8076
0.427	11.507
0.419	10.8521
0.411	10.5501
0.403	10.3203
