Name: Sanidine (K,Na)Al3O8
Type: Mineral
Class: Silicates
Subclass: Tectosilicates (Feldspar Group)
Particle Size: Solid (cleavage face)
Sample No.: sanidine.3
Owner: JHU
Wavelength Range: IR
Origin: Higasinuiro-gun, Taiji, Wakayama, Japan via the Smithsonian
Description: The sample consisted of many small (0.5 cm) euhedral
Measurement: Bidirectional reflectance
X Units: Wavelength (micrometers)
Y Units: Reflectance (percent)
wavelength	value
25.0442	21.7812
24.3388	24.54
23.6719	26.1718
23.0407	27.8578
22.4422	25.7411
21.8741	17.604
21.334	15.6464
20.8199	12.8486
20.33	11.0009
19.8627	12.3889
19.4163	13.539
18.9896	15.249
18.5812	18.3479
18.19	18.6154
17.815	15.4152
17.4551	16.9267
17.1094	19.9152
16.7772	23.6828
16.4576	23.9662
16.15	19.499
15.8537	13.2473
15.568	12.8364
15.2925	11.8391
15.0265	9.6064
14.7697	10.3791
14.5214	11.2441
14.2814	12.0583
14.0492	12.2951
13.8244	12.2509
13.6067	11.9448
13.3957	11.7529
13.1912	11.8364
12.9929	11.8857
12.8004	11.5874
12.6135	10.9101
12.432	10.0688
12.2557	10.6782
12.0843	11.4931
11.9176	12.0322
11.7555	12.4712
11.5977	13.041
11.444	13.5566
11.2944	14.1372
11.1487	14.792
11.0067	15.5476
10.8682	16.3813
10.7332	17.4257
10.6015	18.6616
10.473	19.8681
10.3476	21.2998
10.2251	23.062
10.1056	25.1362
9.98873	27.8041
9.87458	30.3993
9.763	32.1947
9.65392	33.9684
9.54724	35.477
9.44291	34.4565
9.34082	26.2472
9.24091	23.0605
9.14312	24.9616
9.04739	27.0151
8.95363	29.4975
8.8618	32.7917
8.77183	36.309
8.68368	38.9923
8.59727	39.6198
8.51257	38.8754
8.42951	38.2492
8.34807	37.9853
8.26819	36.7089
8.18981	32.9198
8.11292	26.8486
8.03745	19.6325
7.96337	11.7663
7.89064	4.9682
7.81924	1.7764
7.74911	1.6191
7.68023	2.2104
7.61256	2.7598
7.54608	3.2222
7.48074	3.6121
7.41653	3.9646
7.35341	4.248
7.29136	4.5181
7.23034	4.7275
7.17033	4.9138
7.11132	5.1057
7.05327	5.2624
6.99616	5.4294
6.93996	5.5752
6.88467	5.689
6.83024	5.7991
6.77667	5.8657
6.72393	5.9504
6.67201	6.0166
6.62089	6.0913
6.57054	6.1225
6.52095	6.2158
6.4721	6.2854
6.42398	6.3191
6.37657	6.4077
6.32986	6.4795
6.28382	6.5317
6.23845	6.5657
6.19373	6.5837
6.14965	6.6328
6.10619	6.6496
6.06334	6.6921
6.02109	6.7231
5.97942	6.728
5.93832	6.7021
5.89778	6.7436
5.8578	6.8166
5.81835	6.8034
5.77943	6.8576
5.74103	6.8777
5.70314	6.873
5.66574	6.8984
5.62883	6.9126
5.5924	6.9289
5.55644	6.938
5.52093	6.9609
5.48588	6.9878
5.45127	7.0156
5.41709	7.0232
5.38334	7.0364
5.35	7.0412
5.31708	7.0781
5.28456	7.0762
5.25243	7.0979
5.2207	7.1003
5.18934	7.1181
5.15836	7.1277
5.12775	7.1411
5.09749	7.1406
5.0676	7.1528
5.03805	7.1504
5.00884	7.154
4.97998	7.1714
4.95144	7.1775
4.92322	7.1741
4.89533	7.1824
4.86775	7.1826
4.84048	7.1784
4.81351	7.1919
4.78684	7.188
4.76047	7.188
4.73439	7.1997
4.70859	7.2019
4.68306	7.2146
4.65782	7.2114
4.63284	7.2065
4.60814	7.2134
4.58369	7.2256
4.5595	7.2041
4.53557	7.2026
4.51188	7.1972
4.48845	7.2007
4.46525	7.2012
4.44229	7.2046
4.41957	7.2082
4.39708	7.1982
4.37481	7.2077
4.35277	7.2063
4.33096	7.209
4.30935	7.2087
4.28797	7.2014
4.26679	7.2099
4.24583	7.227
4.22506	7.2329
4.2045	7.2383
4.18414	7.2492
4.16398	7.2514
4.14401	7.2588
4.12423	7.2573
4.10464	7.2519
4.08523	7.2361
4.066	7.2241
4.04696	7.2221
4.02809	7.2261
4.0094	7.2187
3.99088	7.2146
3.97253	7.208
3.95435	7.2031
3.93634	7.2143
3.91848	7.2046
3.90079	7.208
3.88326	7.1999
3.86589	7.1892
3.84867	7.1894
3.8316	7.1802
3.81468	7.1709
3.79791	7.175
3.78129	7.1701
3.76482	7.1694
3.74848	7.1489
3.73229	7.1484
3.71624	7.1384
3.70032	7.1323
3.68454	7.1318
3.6689	7.1308
3.65338	7.1074
3.638	7.1123
3.62275	7.0903
3.60762	7.0859
3.59262	7.0561
3.57775	7.0754
3.56299	7.0513
3.54836	7.04
3.53385	7.0234
3.51945	7.0137
3.50517	6.9924
3.49101	6.9555
3.47696	6.9597
3.46303	6.9482
3.4492	6.9302
3.43549	6.9131
3.42188	6.9033
3.40838	6.8564
3.39499	6.8193
3.38171	6.7944
3.36852	6.7783
3.35544	6.7641
3.34246	6.7475
3.32958	6.7314
3.3168	6.7305
3.30411	6.6846
3.29153	6.6858
3.27903	6.6599
3.26664	6.6457
3.25433	6.6238
3.24212	6.5957
3.23	6.5693
3.21797	6.5517
3.20603	6.5403
3.19418	6.5034
3.18241	6.4888
3.17074	6.4526
3.15914	6.4231
3.14763	6.4026
3.13621	6.3833
3.12487	6.3716
3.11361	6.3452
3.10243	6.3264
3.09133	6.2783
3.0803	6.2597
3.06936	6.2104
3.0585	6.1985
3.04771	6.1555
3.037	6.125
3.02636	6.1079
3.0158	6.0854
3.00531	6.0442
2.99489	6.051
2.98454	6.0185
2.97427	5.9868
2.96407	5.9485
2.95393	5.9299
2.94387	5.8877
2.93387	5.8352
2.92394	5.8078
2.91408	5.7925
2.90429	5.7363
2.89456	5.717
2.88489	5.6743
2.87529	5.6396
2.86576	5.5986
2.85628	5.592
2.84687	5.5315
2.83752	5.5071
2.82823	5.4819
2.81901	5.4668
2.80984	5.4243
2.80073	5.3491
2.79168	5.345
2.78269	5.3081
2.77376	5.2822
2.76488	5.25
2.75606	5.1858
2.7473	5.1692
2.73859	5.1194
2.72994	5.1113
2.72134	5.0246
2.7128	5.0117
2.70431	4.9817
2.69587	4.918
2.68748	4.9338
2.67915	4.8752
2.67087	4.8154
2.66264	4.8198
2.65446	4.7803
2.64633	4.7554
2.63825	4.7139
2.63021	4.6504
2.62223	4.6304
2.6143	4.5835
2.60641	4.5122
2.59857	4.522
2.59078	4.4766
2.58304	4.4409
2.57534	4.4404
2.56768	4.3906
2.56008	4.3813
2.55251	4.3389
2.54499	4.3345
2.53752	4.2949
2.53009	4.2925
2.5227	4.2563
2.51536	4.2329
2.50806	4.2036
2.5008	4.188
2.49358	4.165
2.4864	4.1465
2.47927	4.1352
2.47218	4.102
2.46512	4.0532
2.45811	4.043
2.45114	4.0234
2.4442	4.0166
2.43731	3.9907
2.43045	3.9712
2.42363	3.9531
2.41685	3.9707
2.41011	3.9512
2.40341	3.9243
2.39674	3.9126
2.39011	3.8833
2.38352	3.8892
2.37696	3.8852
2.37044	3.8887
2.36395	3.8892
2.35751	3.8638
2.35109	3.8677
2.34471	3.8481
2.33836	3.8657
2.33205	3.8711
2.32578	3.8071
2.31953	3.8242
2.31332	3.8691
2.30714	3.8037
2.301	3.8154
2.29489	3.8086
2.28881	3.8066
2.28276	3.7891
2.27675	3.7949
2.27076	3.8057
2.26481	3.8144
2.25889	3.7578
2.253	3.7695
2.24714	3.7705
2.24131	3.7822
2.23551	3.7334
2.22974	3.7588
2.224	3.7226
2.21829	3.748
2.21261	3.6924
2.20696	3.7109
2.20134	3.6933
2.19574	3.7226
2.19018	3.7031
2.18464	3.6836
2.17913	3.665
2.17365	3.6807
2.16819	3.6426
2.16277	3.6641
2.15737	3.6797
2.15199	3.6728
2.14665	3.6455
2.14133	3.582
2.13603	3.584
2.13077	3.5937
2.12552	3.6016
2.12031	3.5713
2.11512	3.5127
2.10995	3.4863
2.10481	3.5127
2.0997	3.5088
2.09461	3.5
2.08954	3.5039
2.0845	3.4541
2.07948	3.4346
