Name: Alunite (potassium alunite) KAl3(SO4)2(OH)6
Type: Mineral
Class: Sulfates
Particle Size: Fine (0-15 micrometers)
Sample No.: alunite.3
Owner: JHU
Wavelength Range: IR
Origin: Synthetic; Synthesized by Roger Stoffregen, supplied by Phil
Description: The sample was a light gray, microcrystalline powder
Measurement: Bidirectional Reflectance
X Units: Wavelength (micrometers)
Y Units: Reflectance (percent)
wavelength	value
25.044	3.3154
24.339	3.0166
23.672	3.123
23.041	3.1333
22.442	2.8633
21.874	3.3672
21.334	4.1243
20.82	4.404
20.33	3.4111
19.863	3.4031
19.416	3.5349
18.99	3.0134
18.581	3.0991
18.19	3.5298
17.815	3.7038
17.455	3.3828
17.109	3.1008
16.777	3.3652
16.458	2.9182
16.15	2.6997
15.854	3.1438
15.568	3.074
15.292	1.7297
15.027	2.5322
14.77	3.092
14.521	3.394
14.281	3.4465
14.049	3.6958
13.824	3.7195
13.607	2.5156
13.396	1.4219
13.191	1.0547
12.993	1.1448
12.8	1.3638
12.614	1.6218
12.432	1.876
12.256	2.2507
12.084	2.6785
11.918	3.0166
11.755	3.2754
11.598	3.4155
11.444	3.5349
11.294	3.5527
11.149	3.7202
11.007	3.9809
10.868	4.3433
10.733	4.707
10.602	4.883
10.473	5.0486
10.348	5.124
10.225	4.9917
10.106	4.8359
9.989	4.6741
9.875	4.2246
9.763	2.7607
9.654	3.636
9.547	3.5935
9.443	2.9502
9.341	2.9941
9.241	3.3618
9.143	3.4309
9.047	3.5308
8.954	3.6706
8.862	3.7502
8.772	3.6162
8.684	3.1282
8.597	3.1042
8.513	3.0364
8.43	2.3777
8.348	2.0317
8.268	1.8227
8.19	1.761
8.113	1.8037
8.037	1.9995
7.963	2.3828
7.891	2.6858
7.819	2.6269
7.749	2.1494
7.68	1.7859
7.613	1.7168
7.546	1.8962
7.481	2.137
7.417	2.5437
7.353	2.9534
7.291	3.2009
7.23	3.48
7.17	3.6982
7.111	3.7969
7.053	3.7226
6.996	3.7361
6.94	3.9707
6.885	4.2038
6.83	4.2715
6.777	4.2829
6.724	4.4414
6.672	4.7832
6.621	5.1099
6.571	5.4346
6.521	5.8472
6.472	6.0989
6.424	6.2158
6.377	6.1384
6.33	6.0596
6.284	6.0193
6.238	5.946
6.194	5.6638
6.15	5.3347
6.106	5.1142
6.063	5.0732
6.021	5.1677
5.979	5.2671
5.938	5.3923
5.898	5.7346
5.858	6.2832
5.818	6.6699
5.779	7.0022
5.741	7.2212
5.703	7.4783
5.666	7.7134
5.629	7.9189
5.592	8.0303
5.556	8.1238
5.521	8.2646
5.486	8.4802
5.451	8.7888
5.417	9.0329
5.383	9.1604
5.35	9.259
5.317	9.3811
5.285	9.5139
5.252	9.6189
5.221	9.7036
5.189	9.8044
5.158	9.9062
5.128	9.9839
5.097	10.094
5.068	10.2036
5.038	10.2849
5.009	10.3254
4.98	10.3237
4.951	10.3237
4.923	10.2951
4.895	10.1347
4.868	9.8921
4.84	9.5437
4.814	9.8071
4.787	9.3159
4.76	7.6111
4.734	5.927
4.709	6.2378
4.683	6.4189
4.658	6.8313
4.633	6.0732
4.608	5.4595
4.584	5.2851
4.56	5.8269
4.536	5.9748
4.512	6.0285
4.488	6.0408
4.465	6.4787
4.442	6.6028
4.42	6.8227
4.397	6.8711
4.375	6.6169
4.353	6.7815
4.331	7.2334
4.309	7.9887
4.288	8.2217
4.267	8.3701
4.246	8.5669
4.225	8.842
4.205	8.9414
4.184	8.9394
4.164	8.8716
4.144	8.7976
4.124	8.7658
4.105	8.7746
4.085	8.7876
4.066	8.8215
4.047	8.8542
4.028	8.8738
4.009	8.8933
3.991	8.9177
3.973	8.9348
3.954	8.9739
3.936	9.0359
3.918	9.0888
3.901	9.1452
3.883	9.1692
3.866	9.0776
3.849	9.2292
3.832	9.238
3.815	9.237
3.798	9.2422
3.781	9.2383
3.765	9.2151
3.748	9.1775
3.732	9.1223
3.716	9.052
3.7	8.9524
3.685	8.8518
3.669	8.7556
3.653	8.6347
3.638	8.5261
3.623	8.3811
3.608	8.2458
3.593	8.0952
3.578	7.9441
3.563	7.8061
3.548	7.6426
3.534	7.4822
3.519	7.3098
3.505	7.0574
3.491	7.0027
3.477	6.9175
3.463	6.7842
3.449	6.6379
3.435	6.4472
3.422	6.2168
3.408	6.1384
3.395	6.1221
3.382	6.0422
3.369	5.9831
3.355	5.9035
3.342	5.7927
3.33	5.7287
3.317	5.634
3.304	5.5664
3.292	5.5478
3.279	5.4809
3.267	5.4248
3.254	5.3794
3.242	5.3442
3.23	5.2798
3.218	5.2417
3.206	5.2246
3.194	5.1743
3.182	5.1357
3.171	5.0945
3.159	5.0386
3.148	4.9897
3.136	4.8872
3.125	4.7285
3.114	4.8594
3.102	4.7136
3.091	4.4397
3.08	4.3323
3.069	4.3623
3.058	4.4143
3.048	4.5503
3.037	4.5237
3.026	4.4197
3.016	4.168
3.005	4.2034
2.995	4.156
2.985	3.8181
2.974	3.4065
2.964	3.2217
2.954	2.9348
2.944	2.6916
2.934	2.7681
2.924	2.8418
2.914	2.7859
2.904	2.7178
2.895	2.4717
2.885	1.9766
2.875	1.4104
2.866	2.3916
2.856	1.2942
2.847	1.6362
2.838	1.7402
2.828	1.7397
2.819	2.3997
2.81	2.8393
2.801	3.2544
2.792	3.7434
2.783	4.258
2.774	4.7388
2.765	6.0256
2.756	7.2258
2.747	7.8872
2.739	8.9184
2.73	10.1423
2.721	10.7859
2.713	12.3532
2.704	13.3806
2.696	14.1452
2.687	14.2544
2.679	14.2568
2.671	14.708
2.663	14.976
2.654	15.3115
2.646	15.9653
2.638	15.9887
2.63	15.8237
2.622	15.7143
2.614	15.6999
2.606	15.4365
2.599	15.5722
2.591	15.0778
2.583	14.8066
2.575	14.9057
2.568	14.8921
2.56	14.8471
2.553	15.1821
2.545	15.0835
2.538	14.7502
2.53	14.687
2.523	13.7292
2.515	12.7124
2.508	12.8794
2.501	14.2339
2.494	14.7763
2.486	15.4609
2.479	15.4004
2.472	14.7607
2.465	14.6093
2.458	15.2485
2.451	15.5979
2.444	15.5271
2.437	15.0219
2.43	14.6298
2.424	15.1523
2.417	15.5151
2.41	15.9377
2.403	16.0156
2.397	15.8774
2.39	16.0776
2.384	16.6284
2.377	17.1987
2.37	17.5385
2.364	17.6731
2.358	17.7065
2.351	17.7155
2.345	17.6652
2.338	17.4628
2.332	17.1203
2.326	16.7153
2.32	16.4231
2.313	16.6169
2.307	17.2331
2.301	17.5739
2.295	17.7041
2.289	17.6877
2.283	17.8198
2.277	17.875
2.271	17.9179
2.265	17.9282
2.259	17.9311
2.253	17.9594
2.247	17.9465
2.241	17.9184
2.236	17.9318
2.23	17.8276
2.224	17.6718
2.218	16.9956
2.213	15.9228
2.207	15.8964
2.201	16.677
2.196	16.518
2.19	15.7021
2.185	15.4055
2.179	15.0285
2.174	15.4209
2.168	15.0617
2.163	15.2021
2.157	14.9887
2.152	15.2773
2.147	15.5717
2.141	15.6445
2.136	15.8252
2.131	15.9843
2.126	16.1174
2.12	16.4912
2.115	16.8137
2.11	17.0061
2.105	17.2121
2.1	17.2346
2.095	17.3671
2.09	17.4687
2.085	17.4602
2.079	17.4209
