Name: Heulandite (Na,Ca)2-3Al3(Al,Si)2Si13O36.12H2O
Type: Mineral
Class: Silicates
Subclass: Tectosilicates (Zeolite Group)
Particle Size: Fine  (0-74  micrometers)
Sample No.: heulan.1
Owner: JHU
Wavelength Range: IR
Origin: Teigarhora, Iceland via W. J. Ehmann #37.
Description: No solid sample was available.  Petrographically the
Measurement: Bidirectional reflectance
X Units: Wavelength (micrometers)
Y Units: Reflectance (percent)
wavelength	value
25.0442	0.7964
24.3388	0.6841
23.6719	0.7793
23.0407	0.8076
22.4422	0.7544
21.8741	0.8884
21.334	0.9353
20.8199	0.9136
20.33	0.7065
19.8627	0.5352
19.4163	0.477
18.9896	0.4773
18.5812	0.4143
18.19	0.3772
17.815	0.4451
17.4551	0.4497
17.1094	0.4753
16.7772	0.4341
16.4576	0.4138
16.15	0.386
15.8537	0.4019
15.568	0.4216
15.2925	0.4912
15.0265	0.5127
14.7697	0.4941
14.5214	0.5051
14.2814	0.4944
14.0492	0.488
13.8244	0.4912
13.6067	0.4866
13.3957	0.5261
13.1912	0.5896
12.9929	0.6299
12.8004	0.6331
12.6135	0.647
12.432	0.8237
12.2557	1.2239
12.0843	1.592
11.9176	1.7869
11.7555	1.9082
11.5977	1.9695
11.444	2.0276
11.2944	2.0276
11.1487	1.9814
11.0067	1.8638
10.8682	1.7141
10.7332	1.4836
10.6015	1.1794
10.473	0.8948
10.3476	0.7534
10.2251	0.6965
10.1056	0.6978
9.98873	0.7141
9.87458	0.7239
9.763	0.7251
9.65392	0.728
9.54724	0.7361
9.44291	0.7949
9.34082	0.8423
9.24091	0.865
9.14312	0.7996
9.04739	0.7512
8.95363	0.7097
8.8618	0.6772
8.77183	0.6577
8.68368	0.625
8.59727	0.605
8.51257	0.6003
8.42951	0.6287
8.34807	0.665
8.26819	0.6875
8.18981	0.7173
8.11292	0.5867
8.03745	0.3628
7.96337	0.1829
7.89064	0.1226
7.81924	0.1604
7.74911	0.271
7.68023	0.4221
7.61256	0.5962
7.54608	0.7825
7.48074	0.9553
7.41653	1.1147
7.35341	1.2637
7.29136	1.3972
7.23034	1.5059
7.17033	1.6089
7.11132	1.6985
7.05327	1.7773
6.99616	1.8484
6.93996	1.9228
6.88467	1.9885
6.83024	2.0332
6.77667	2.0825
6.72393	2.123
6.67201	2.1338
6.62089	2.137
6.57054	2.1291
6.52095	2.1086
6.4721	2.063
6.42398	1.9829
6.37657	1.8589
6.32986	1.6501
6.28382	1.3032
6.23845	0.8909
6.19373	0.5757
6.14965	0.4204
6.10619	0.4199
6.06334	0.5229
6.02109	0.727
5.97942	1.0012
5.93832	1.352
5.89778	1.7839
5.8578	2.1948
5.81835	2.5447
5.77943	2.8044
5.74103	2.9802
5.70314	3.1096
5.66574	3.2002
5.62883	3.2737
5.5924	3.3391
5.55644	3.4101
5.52093	3.4812
5.48588	3.5701
5.45127	3.6933
5.41709	3.811
5.38334	3.918
5.35	4.001
5.31708	4.0583
5.28456	4.1028
5.25243	4.116
5.2207	4.1494
5.18934	4.1819
5.15836	4.2248
5.12775	4.2898
5.09749	4.3745
5.0676	4.4602
5.03805	4.553
5.00884	4.6294
4.97998	4.6741
4.95144	4.7004
4.92322	4.7026
4.89533	4.6921
4.86775	4.6841
4.84048	4.6689
4.81351	4.6597
4.78684	4.6479
4.76047	4.6443
4.73439	4.6448
4.70859	4.6472
4.68306	4.647
4.65782	4.6641
4.63284	4.6687
4.60814	4.6846
4.58369	4.7161
4.5595	4.7554
4.53557	4.7969
4.51188	4.8537
4.48845	4.9248
4.46525	5.0141
4.44229	5.112
4.41957	5.2134
4.39708	5.3247
4.37481	5.4519
4.35277	5.582
4.33096	5.7102
4.30935	5.8315
4.28797	5.9573
4.26679	6.0889
4.24583	6.2092
4.22506	6.3264
4.2045	6.4475
4.18414	6.5525
4.16398	6.6418
4.14401	6.7361
4.12423	6.8315
4.10464	6.9165
4.08523	6.9878
4.066	7.0644
4.04696	7.1284
4.02809	7.1877
4.0094	7.2297
3.99088	7.2673
3.97253	7.2829
3.95435	7.3025
3.93634	7.311
3.91848	7.3103
3.90079	7.3061
3.88326	7.2834
3.86589	7.2449
3.84867	7.209
3.8316	7.1719
3.81468	7.1094
3.79791	7.0527
3.78129	6.9951
3.76482	6.9204
3.74848	6.8406
3.73229	6.7529
3.71624	6.6636
3.70032	6.5679
3.68454	6.4648
3.6689	6.3428
3.65338	6.2236
3.638	6.1006
3.62275	5.9724
3.60762	5.8506
3.59262	5.697
3.57775	5.5591
3.56299	5.4097
3.54836	5.2505
3.53385	5.083
3.51945	4.9165
3.50517	4.7268
3.49101	4.5771
3.47696	4.4072
3.46303	4.2307
3.4492	4.0422
3.43549	3.8621
3.42188	3.667
3.40838	3.5002
3.39499	3.3354
3.38171	3.1597
3.36852	3.0112
3.35544	2.8418
3.34246	2.6963
3.32958	2.5359
3.3168	2.3916
3.30411	2.2546
3.29153	2.1186
3.27903	1.981
3.26664	1.8545
3.25433	1.7422
3.24212	1.6226
3.23	1.5283
3.21797	1.4338
3.20603	1.3313
3.19418	1.2385
3.18241	1.1648
3.17074	1.0894
3.15914	1.0203
3.14763	0.9678
3.13621	0.8987
3.12487	0.854
3.11361	0.8127
3.10243	0.7893
3.09133	0.7637
3.0803	0.7585
3.06936	0.7441
3.0585	0.7207
3.04771	0.7087
3.037	0.6716
3.02636	0.6606
3.0158	0.6477
3.00531	0.6191
2.99489	0.6089
2.98454	0.5774
2.97427	0.5605
2.96407	0.5474
2.95393	0.5452
2.94387	0.5261
2.93387	0.5139
2.92394	0.511
2.91408	0.502
2.90429	0.5051
2.89456	0.5054
2.88489	0.5039
2.87529	0.5059
2.86576	0.5186
2.85628	0.4917
2.84687	0.5056
2.83752	0.4971
2.82823	0.5041
2.81901	0.5066
2.80984	0.5066
2.80073	0.5208
2.79168	0.4907
2.78269	0.5002
2.77376	0.4973
2.76488	0.5046
2.75606	0.5312
2.7473	0.6353
2.73859	0.8264
2.72994	1.1367
2.72134	1.6382
2.7128	2.1789
2.70431	2.7388
2.69587	3.207
2.68748	3.6218
2.67915	3.9849
2.67087	4.261
2.66264	4.5134
2.65446	4.7102
2.64633	4.886
2.63825	5.0232
2.63021	5.1318
2.62223	5.2363
2.6143	5.3196
2.60641	5.3674
2.59857	5.448
2.59078	5.4597
2.58304	5.4975
2.57534	5.5076
2.56768	5.5381
2.56008	5.5683
2.55251	5.5842
2.54499	5.6401
2.53752	5.688
2.53009	5.7163
2.5227	5.7805
2.51536	5.8437
2.50806	5.9014
2.5008	5.9743
2.49358	6.0364
2.4864	6.1203
2.47927	6.1723
2.47218	6.2453
2.46512	6.3296
2.45811	6.3755
2.45114	6.448
2.4442	6.501
2.43731	6.6028
2.43045	6.7016
2.42363	6.8022
2.41685	6.9311
2.41011	7.0674
2.40341	7.2207
2.39674	7.3315
2.39011	7.4621
2.38352	7.612
2.37696	7.781
2.37044	7.9035
2.36395	8.0764
2.35751	8.1741
2.35109	8.3193
2.34471	8.4592
2.33836	8.5249
2.33205	8.6335
2.32578	8.6831
2.31953	8.7988
2.31332	8.8425
2.30714	8.9033
2.301	8.9616
2.29489	9.0246
2.28881	9.0657
2.28276	9.081
2.27675	9.1211
2.27076	9.1758
2.26481	9.2073
2.25889	9.2278
2.253	9.2688
2.24714	9.2529
2.24131	9.2495
2.23551	9.3281
2.22974	9.292
2.224	9.2822
2.21829	9.3149
2.21261	9.3196
2.20696	9.2636
2.20134	9.2942
2.19574	9.289
2.19018	9.3091
2.18464	9.3337
2.17913	9.2636
2.17365	9.302
2.16819	9.291
2.16277	9.299
2.15737	9.3
2.15199	9.2475
2.14665	9.2202
2.14133	9.2177
2.13603	9.2124
2.13077	9.1738
2.12552	9.1562
2.12031	9.167
2.11512	9.1069
2.10995	9.0979
2.10481	9.0678
2.0997	9.0639
2.09461	9.0669
2.08954	9.0625
2.0845	9.0146
2.07948	8.9966
