Name: Augite (Ca,Na)(Mg,Fe,Al,Ti)(Si,Al)2O6
Type: Mineral
Class: Silicates
Subclass: Inosilicates (Pyroxene Group - single chain)
Particle Size: Fine  (less than 75 Micrometers)
Sample No.: augite.2
Owner: JHU
Wavelength Range: IR
Origin: Sample from Rozier, near Gorges du Tarn, Tarn, France via
Description: The sample was a single 22.31 g portion of a single
Measurement: Bidirectional reflectance
X Units: Wavelength (micrometers)
Y Units: Reflectance (percent)
wavelength	value
25.0442	3.416
24.3388	3.5791
23.6719	3.2534
23.0407	3.3545
22.4422	3.3957
21.8741	3.5122
21.334	3.6819
20.8199	3.9248
20.33	3.8762
19.8627	4.0161
19.4163	4.2051
18.9896	4.0532
18.5812	4.0041
18.19	3.977
17.815	3.9358
17.4551	3.8682
17.1094	3.5176
16.7772	2.7934
16.4576	1.9653
16.15	1.6365
15.8537	1.5796
15.568	1.603
15.2925	1.5391
15.0265	1.6321
14.7697	1.7566
14.5214	1.9653
14.2814	2.1609
14.0492	2.3157
13.8244	2.4592
13.6067	2.5832
13.3957	2.5969
13.1912	2.4839
12.9929	2.436
12.8004	2.4653
12.6135	2.4648
12.432	2.456
12.2557	2.4128
12.0843	2.3621
11.9176	2.334
11.7555	2.3069
11.5977	2.3557
11.444	2.3747
11.2944	2.404
11.1487	2.4153
11.0067	2.4375
10.8682	2.5171
10.7332	2.5654
10.6015	2.6328
10.473	2.6116
10.3476	2.5532
10.2251	2.4026
10.1056	2.2864
9.98873	2.2556
9.87458	2.2602
9.763	2.3018
9.65392	2.3669
9.54724	2.48
9.44291	2.6423
9.34082	2.8369
9.24091	3.0198
9.14312	3.2097
9.04739	3.4055
8.95363	3.5806
8.8618	3.7134
8.77183	3.7356
8.68368	3.469
8.59727	2.1728
8.51257	1.3079
8.42951	1.3665
8.34807	1.8733
8.26819	2.4954
8.18981	3.1348
8.11292	3.738
8.03745	4.2781
7.96337	4.7524
7.89064	5.1987
7.81924	5.6299
7.74911	5.9944
7.68023	6.3313
7.61256	6.6477
7.54608	6.9219
7.48074	7.1858
7.41653	7.437
7.35341	7.6474
7.29136	7.8545
7.23034	7.9678
7.17033	8.0981
7.11132	8.2575
7.05327	8.4038
6.99616	8.5705
6.93996	8.748
6.88467	8.8791
6.83024	9.0112
6.77667	9.1147
6.72393	9.0569
6.67201	8.8845
6.62089	8.6628
6.57054	8.4668
6.52095	8.2878
6.4721	8.1465
6.42398	8.0886
6.37657	8.144
6.32986	8.2615
6.28382	8.3943
6.23845	8.5085
6.19373	8.5918
6.14965	8.6406
6.10619	8.6992
6.06334	8.7905
6.02109	8.9145
5.97942	9.092
5.93832	9.3506
5.89778	9.6853
5.8578	10.0063
5.81835	10.2585
5.77943	10.5759
5.74103	10.9743
5.70314	11.3459
5.66574	11.6384
5.62883	11.8354
5.5924	12.0007
5.55644	12.1037
5.52093	12.1401
5.48588	12.0842
5.45127	11.9421
5.41709	11.7285
5.38334	11.5009
5.35	11.2798
5.31708	11.0849
5.28456	10.9104
5.25243	10.7863
5.2207	10.7373
5.18934	10.7243
5.15836	10.738
5.12775	10.778
5.09749	10.8491
5.0676	10.9636
5.03805	11.1338
5.00884	11.351
4.97998	11.5722
4.95144	11.7754
4.92322	11.9814
4.89533	12.2292
4.86775	12.4865
4.84048	12.7756
4.81351	13.0547
4.78684	13.3296
4.76047	13.6128
4.73439	13.905
4.70859	14.2263
4.68306	14.5461
4.65782	14.8913
4.63284	15.2309
4.60814	15.5517
4.58369	15.821
4.5595	16.07
4.53557	16.2822
4.51188	16.4296
4.48845	16.5737
4.46525	16.6777
4.44229	16.7334
4.41957	16.8081
4.39708	16.8464
4.37481	16.8886
4.35277	16.9135
4.33096	16.9338
4.30935	16.9455
4.28797	16.9565
4.26679	16.9899
4.24583	17.0129
4.22506	17.0241
4.2045	17.038
4.18414	17.0502
4.16398	17.0617
4.14401	17.0644
4.12423	17.0622
4.10464	17.0686
4.08523	17.0905
4.066	17.1001
4.04696	17.1003
4.02809	17.1132
4.0094	17.1084
3.99088	17.1052
3.97253	17.0996
3.95435	17.0996
3.93634	17.0925
3.91848	17.0976
3.90079	17.0991
3.88326	17.0852
3.86589	17.0571
3.84867	17.0351
3.8316	17.0197
3.81468	16.9902
3.79791	16.9536
3.78129	16.9428
3.76482	16.904
3.74848	16.8676
3.73229	16.8347
3.71624	16.7937
3.70032	16.7402
3.68454	16.7011
3.6689	16.6462
3.65338	16.6101
3.638	16.5546
3.62275	16.5149
3.60762	16.4753
3.59262	16.4218
3.57775	16.3652
3.56299	16.3071
3.54836	16.2153
3.53385	16.1311
3.51945	16.0097
3.50517	15.7934
3.49101	15.7592
3.47696	15.6728
3.46303	15.6203
3.4492	15.498
3.43549	15.436
3.42188	15.2439
3.40838	15.1469
3.39499	15.2312
3.38171	15.2192
3.36852	15.2067
3.35544	15.1591
3.34246	15.2793
3.32958	15.3359
3.3168	15.3354
3.30411	15.3105
3.29153	15.2546
3.27903	15.1804
3.26664	15.1027
3.25433	15.0034
3.24212	14.9272
3.23	14.8366
3.21797	14.7446
3.20603	14.6508
3.19418	14.5634
3.18241	14.4963
3.17074	14.4033
3.15914	14.3339
3.14763	14.2497
3.13621	14.1579
3.12487	14.0927
3.11361	14.029
3.10243	13.9843
3.09133	13.9184
3.0803	13.865
3.06936	13.8357
3.0585	13.7661
3.04771	13.7351
3.037	13.6772
3.02636	13.6333
3.0158	13.5598
3.00531	13.4611
2.99489	13.4167
2.98454	13.3303
2.97427	13.2212
2.96407	13.1284
2.95393	13.031
2.94387	12.9004
2.93387	12.771
2.92394	12.6352
2.91408	12.5063
2.90429	12.3989
2.89456	12.3261
2.88489	12.227
2.87529	12.1396
2.86576	12.0962
2.85628	12.042
2.84687	11.9712
2.83752	11.9194
2.82823	11.8896
2.81901	11.8852
2.80984	11.9397
2.80073	11.9743
2.79168	12.0024
2.78269	12.0083
2.77376	12.0639
2.76488	12.0903
2.75606	12.2348
2.7473	12.6421
2.73859	13.1972
2.72994	13.8178
2.72134	14.354
2.7128	14.9023
2.70431	15.2094
2.69587	15.6557
2.68748	16.1027
2.67915	16.2885
2.67087	16.3628
2.66264	16.3928
2.65446	16.342
2.64633	16.3107
2.63825	16.239
2.63021	16.1731
2.62223	16.101
2.6143	16.0056
2.60641	15.9377
2.59857	15.8244
2.59078	15.7592
2.58304	15.6757
2.57534	15.602
2.56768	15.4719
2.56008	15.3754
2.55251	15.2778
2.54499	15.1635
2.53752	15.0908
2.53009	14.9931
2.5227	14.8349
2.51536	14.7588
2.50806	14.6679
2.5008	14.583
2.49358	14.4904
2.4864	14.3518
2.47927	14.2912
2.47218	14.1818
2.46512	14.0559
2.45811	13.9892
2.45114	13.9443
2.4442	13.8264
2.43731	13.7739
2.43045	13.7063
2.42363	13.625
2.41685	13.583
2.41011	13.5139
2.40341	13.4641
2.39674	13.3527
2.39011	13.332
2.38352	13.2256
2.37696	13.2356
2.37044	13.1743
2.36395	13.1477
2.35751	13.0625
2.35109	13.0576
2.34471	12.9904
2.33836	12.9814
2.33205	12.916
2.32578	12.9133
2.31953	12.8808
2.31332	12.8828
2.30714	12.8173
2.301	12.7944
2.29489	12.7719
2.28881	12.7607
2.28276	12.7348
2.27675	12.7841
2.27076	12.7309
2.26481	12.7021
2.25889	12.6943
2.253	12.7046
2.24714	12.7392
2.24131	12.6562
2.23551	12.7373
2.22974	12.6884
2.224	12.706
2.21829	12.7646
2.21261	12.7602
2.20696	12.7226
2.20134	12.7783
2.19574	12.811
2.19018	12.8095
2.18464	12.8379
2.17913	12.7934
2.17365	12.9106
2.16819	12.9091
2.16277	12.9843
2.15737	13.0258
2.15199	12.9555
2.14665	12.9765
2.14133	13.0278
2.13603	13.0771
2.13077	13.0742
2.12552	13.0957
2.12031	13.2158
2.11512	13.1411
2.10995	13.1972
2.10481	13.2519
2.0997	13.2583
2.09461	13.3305
2.08954	13.3852
2.0845	13.3886
2.07948	13.4145
