Name: Muscovite KAl2(Si3Al)O10(OH,F)2
Type: Mineral
Class: Silicates
Subclass: Phyllosilicates (Sheet Silicates); (MicaGroup)
Particle Size: Fine  (0-74  Micrometers)
Sample No.: muscov.1
Owner: JHU
Wavelength Range: IR
Origin: Methuen Township, Ontario via Bruce Hemingway, USGS
Description: The sample consisted of clear, transparent "books" of
Measurement: Bidirectional reflectance
X Units: Wavelength (micrometers)
Y Units: Reflectance (percent)
wavelength	value
25.0442	4.3472
24.3388	3.6653
23.6719	3.5889
23.0407	3.7085
22.4422	3.5286
21.8741	3.7939
21.334	4.1496
20.8199	4.5503
20.33	4.5115
19.8627	4.0393
19.4163	3.5998
18.9896	3.988
18.5812	4.8574
18.19	5.0715
17.815	4.7226
17.4551	4.2583
17.1094	4.4119
16.7772	4.5058
16.4576	3.6584
16.15	2.7112
15.8537	2.2852
15.568	1.9543
15.2925	2.0459
15.0265	2.2441
14.7697	2.198
14.5214	2.1304
14.2814	2.1907
14.0492	2.3564
13.8244	2.262
13.6067	2.2417
13.3957	2.0212
13.1912	1.8662
12.9929	2.1716
12.8004	2.75
12.6135	2.7729
12.432	2.6357
12.2557	3.1421
12.0843	3.3911
11.9176	3.7097
11.7555	3.8662
11.5977	3.4812
11.444	3.0427
11.2944	2.8108
11.1487	2.73
11.0067	2.5295
10.8682	2.4436
10.7332	2.3818
10.6015	2.4141
10.473	2.6516
10.3476	2.687
10.2251	2.8391
10.1056	3.1589
9.98873	3.292
9.87458	3.5742
9.763	4.0244
9.65392	4.9431
9.54724	4.7131
9.44291	3.7112
9.34082	4.2102
9.24091	4.8223
9.14312	5.1492
9.04739	5.1738
8.95363	5.3157
8.8618	5.435
8.77183	5.8159
8.68368	5.8511
8.59727	5.4162
8.51257	4.519
8.42951	3.3577
8.34807	2.3879
8.26819	1.9578
8.18981	2.1167
8.11292	2.5393
8.03745	3.04
7.96337	3.5051
7.89064	3.9275
7.81924	4.3037
7.74911	4.6948
7.68023	5.0869
7.61256	5.4399
7.54608	5.7385
7.48074	5.9717
7.41653	6.1882
7.35341	6.3586
7.29136	6.5034
7.23034	6.6889
7.17033	6.8794
7.11132	7.0632
7.05327	7.2475
6.99616	7.3616
6.93996	7.487
6.88467	7.6201
6.83024	7.7976
6.77667	8.1318
6.72393	8.3972
6.67201	8.5759
6.62089	8.6772
6.57054	8.8171
6.52095	8.9033
6.4721	8.957
6.42398	8.9902
6.37657	9.0019
6.32986	9.0139
6.28382	8.9914
6.23845	8.8982
6.19373	8.7265
6.14965	8.5085
6.10619	8.3716
6.06334	8.2307
6.02109	8.0469
5.97942	7.9148
5.93832	7.9128
5.89778	7.9631
5.8578	8.0105
5.81835	8.0334
5.77943	7.9419
5.74103	7.82
5.70314	7.8884
5.66574	8.0469
5.62883	8.0627
5.5924	8.0251
5.55644	8.0237
5.52093	8.0354
5.48588	8.0595
5.45127	8.1494
5.41709	8.3098
5.38334	8.4909
5.35	8.7668
5.31708	9.1089
5.28456	9.4797
5.25243	9.8662
5.2207	10.2058
5.18934	10.5539
5.15836	10.8764
5.12775	11.1706
5.09749	11.3637
5.0676	11.469
5.03805	11.5266
5.00884	11.5471
4.97998	11.518
4.95144	11.4975
4.92322	11.5056
4.89533	11.5791
4.86775	11.6694
4.84048	11.7487
4.81351	11.8193
4.78684	11.9043
4.76047	12.0193
4.73439	12.125
4.70859	12.2204
4.68306	12.3376
4.65782	12.4863
4.63284	12.6706
4.60814	12.841
4.58369	12.9719
4.5595	13.0776
4.53557	13.1736
4.51188	13.2634
4.48845	13.3554
4.46525	13.4431
4.44229	13.5424
4.41957	13.6484
4.39708	13.7048
4.37481	13.7241
4.35277	13.7087
4.33096	13.696
4.30935	13.6872
4.28797	13.6601
4.26679	13.655
4.24583	13.625
4.22506	13.6215
4.2045	13.5881
4.18414	13.5547
4.16398	13.5378
4.14401	13.5053
4.12423	13.4597
4.10464	13.4411
4.08523	13.4221
4.066	13.4079
4.04696	13.3745
4.02809	13.3532
4.0094	13.3305
3.99088	13.3042
3.97253	13.2798
3.95435	13.2851
3.93634	13.27
3.91848	13.2697
3.90079	13.2766
3.88326	13.2465
3.86589	13.2129
3.84867	13.1982
3.8316	13.1884
3.81468	13.1572
3.79791	13.1372
3.78129	13.0923
3.76482	13.0471
3.74848	12.9819
3.73229	12.8989
3.71624	12.8554
3.70032	12.8303
3.68454	12.7898
3.6689	12.7632
3.65338	12.7551
3.638	12.7632
3.62275	12.7473
3.60762	12.7473
3.59262	12.726
3.57775	12.6845
3.56299	12.6208
3.54836	12.5344
3.53385	12.4157
3.51945	12.1394
3.50517	11.5757
3.49101	11.8442
3.47696	11.9448
3.46303	11.9233
3.4492	11.7646
3.43549	11.5122
3.42188	11.1037
3.40838	11.2905
3.39499	11.6714
3.38171	11.7068
3.36852	11.8647
3.35544	12.1179
3.34246	12.2214
3.32958	12.2649
3.3168	12.2878
3.30411	12.3039
3.29153	12.3093
3.27903	12.2981
3.26664	12.2722
3.25433	12.2502
3.24212	12.2287
3.23	12.2046
3.21797	12.1599
3.20603	12.1401
3.19418	12.0898
3.18241	12.0634
3.17074	12.0241
3.15914	11.9863
3.14763	11.9592
3.13621	11.8987
3.12487	11.8625
3.11361	11.8254
3.10243	11.7946
3.09133	11.7783
3.0803	11.7612
3.06936	11.7336
3.0585	11.6819
3.04771	11.6718
3.037	11.6447
3.02636	11.6194
3.0158	11.6089
3.00531	11.5869
2.99489	11.5583
2.98454	11.5383
2.97427	11.4975
2.96407	11.4675
2.95393	11.4431
2.94387	11.3867
2.93387	11.2898
2.92394	11.1672
2.91408	11.0329
2.90429	10.9594
2.89456	10.9109
2.88489	10.9397
2.87529	10.9543
2.86576	11.019
2.85628	11.06
2.84687	10.9499
2.83752	10.7575
2.82823	10.5031
2.81901	10.114
2.80984	9.1789
2.80073	7.5959
2.79168	5.531
2.78269	3.7554
2.77376	2.7561
2.76488	2.0276
2.75606	1.6931
2.7473	1.8005
2.73859	1.9536
2.72994	2.4539
2.72134	4.7856
2.7128	8.7947
2.70431	10.9773
2.69587	11.7563
2.68748	12.0793
2.67915	12.2619
2.67087	12.4375
2.66264	12.5559
2.65446	12.6782
2.64633	12.7346
2.63825	12.7446
2.63021	12.726
2.62223	12.676
2.6143	12.6482
2.60641	12.6506
2.59857	12.696
2.59078	12.7793
2.58304	12.8134
2.57534	12.779
2.56768	12.8064
2.56008	12.8303
2.55251	12.862
2.54499	12.8366
2.53752	12.8376
2.53009	12.791
2.5227	12.6933
2.51536	12.6152
2.50806	12.5002
2.5008	12.4006
2.49358	12.3176
2.4864	12.2788
2.47927	12.2512
2.47218	12.1718
2.46512	12.083
2.45811	11.9826
2.45114	11.9306
2.4442	11.8606
2.43731	11.8535
2.43045	11.9067
2.42363	12.008
2.41685	12.0971
2.41011	12.2529
2.40341	12.2978
2.39674	12.2959
2.39011	12.2549
2.38352	12.259
2.37696	12.2495
2.37044	12.2683
2.36395	12.2553
2.35751	12.1943
2.35109	12.0859
2.34471	12.0556
2.33836	12.1233
2.33205	12.247
2.32578	12.417
2.31953	12.5537
2.31332	12.6325
2.30714	12.7744
2.301	12.8698
2.29489	12.9116
2.28881	12.9394
2.28276	12.9795
2.27675	12.998
2.27076	12.9868
2.26481	13.0085
2.25889	12.9785
2.253	13.0322
2.24714	12.9604
2.24131	12.894
2.23551	12.8335
2.22974	12.7536
2.224	12.6147
2.21829	12.5014
2.21261	12.1323
2.20696	11.7072
2.20134	11.3894
2.19574	11.395
2.19018	11.7072
2.18464	12.1792
2.17913	12.6001
2.17365	12.959
2.16819	13.1577
2.16277	13.2502
2.15737	13.3381
2.15199	13.3513
2.14665	13.4355
2.14133	13.4687
2.13603	13.5507
2.13077	13.5239
2.12552	13.5564
2.12031	13.5444
2.11512	13.5693
2.10995	13.5947
2.10481	13.6508
2.0997	13.7153
2.09461	13.7841
2.08954	13.769
2.0845	13.8242
2.07948	13.8676
