Name: Aragonite CaCO3
Type: Mineral
Class: Carbonates
Particle Size: Fine (0-74 Micrometers)
Sample No.: aragonite.1
Owner: JHU
Wavelength Range: IR
Origin: Sample from Horenec, Bilina, Cechy, Czechoslovakia, via
Description: The sample was composed of two transparent, colorless
Measurement: Bidirectional reflectance
X Units: Wavelength (micrometers)
Y Units: Reflectance (percent)
wavelength	value
25.044	0.5586
24.339	0.4219
23.672	0.6255
23.041	0.835
22.442	1.4351
21.874	2.0588
21.334	2.7187
20.82	3.4326
20.33	4.1401
19.863	4.8794
19.416	5.5078
18.99	6.1777
18.581	6.8149
18.19	7.5991
17.815	8.3637
17.455	9.1782
17.109	9.9736
16.777	10.729
16.458	11.3149
16.15	11.7802
15.854	12.2329
15.568	12.6457
15.292	12.9206
15.027	12.9836
14.77	12.7976
14.521	11.135
14.281	2.8618
14.049	2.6484
13.824	9.3996
13.607	12.2146
13.396	13.3396
13.191	13.7512
12.993	13.926
12.8	13.8718
12.614	13.6049
12.432	13.0517
12.256	12.257
12.084	10.3801
11.918	6.364
11.755	3.5188
11.598	3.3618
11.444	6.8645
11.294	7.8581
11.149	9.0998
11.007	7.1677
10.868	10.2746
10.733	10.7038
10.602	10.8498
10.473	11.0427
10.348	11.1115
10.225	11.0996
10.106	11.445
9.989	11.8781
9.875	12.0434
9.763	12.0168
9.654	11.9612
9.547	11.7238
9.443	10.5417
9.341	10.2649
9.241	2.5879
9.143	10.144
9.047	10.4406
8.954	10.768
8.862	10.3081
8.772	9.6355
8.684	8.926
8.597	7.8606
8.513	6.7893
8.43	6.8708
8.348	7.1929
8.268	7.6365
8.19	7.3464
8.113	6.782
8.037	6.1916
7.963	6.2446
7.891	5.6894
7.819	5.0144
7.749	5.1667
7.68	5.0461
7.613	5.102
7.546	5.125
7.481	4.8161
7.417	4.3186
7.353	3.9563
7.291	3.6819
7.23	3.2627
7.17	2.731
7.111	2.5234
7.053	2.2078
6.996	2.063
6.94	2.0557
6.885	2.4058
6.83	2.7732
6.777	3.0581
6.724	3.155
6.672	3.2729
6.621	3.436
6.571	3.6111
6.521	3.8464
6.472	4.1394
6.424	4.3347
6.377	4.1377
6.33	4.2988
6.284	3.9263
6.238	3.1345
6.194	2.5308
6.15	2.2632
6.106	2.0696
6.063	2.0415
6.021	2.2114
5.979	2.553
5.938	3.1055
5.898	3.6977
5.858	4.2522
5.818	4.6814
5.779	5.5351
5.741	6.22
5.703	6.7573
5.666	7.1843
5.629	3.3381
5.592	1.5298
5.556	4.5784
5.521	10.5451
5.486	12.1101
5.451	13.1867
5.417	13.9624
5.383	14.5866
5.35	15.1064
5.317	15.551
5.285	15.8566
5.252	16.0937
5.221	16.3449
5.189	16.6062
5.158	16.7802
5.128	16.957
5.097	17.1308
5.068	17.3366
5.038	17.4914
5.009	17.7626
4.98	17.9099
4.951	18.0253
4.923	18.1477
4.895	18.2419
4.868	18.3081
4.84	18.3664
4.814	18.4235
4.787	18.2702
4.76	17.6337
4.734	16.1337
4.709	15.2402
4.683	14.8166
4.658	14.5185
4.633	13.9638
4.608	15.0322
4.584	15.4519
4.56	16.0898
4.536	16.5866
4.512	17.0705
4.488	17.3095
4.465	17.3066
4.442	17.2636
4.42	17.426
4.397	17.7504
4.375	17.832
4.353	17.3823
4.331	16.4431
4.309	15.9231
4.288	15.9394
4.267	15.9563
4.246	15.6377
4.225	16.0908
4.205	15.9846
4.184	16.1086
4.164	16.2109
4.144	16.1093
4.124	15.7622
4.105	15.2788
4.085	14.705
4.066	13.268
4.047	10.4853
4.028	6.6992
4.009	4.9087
3.991	4.636
3.973	3.8157
3.954	3.6189
3.936	5.0544
3.918	4.8125
3.901	6.0483
3.883	7.2519
3.866	8.0056
3.849	8.5442
3.832	8.466
3.815	8.2981
3.798	8.4316
3.781	9.7383
3.765	11.6892
3.748	14.6081
3.732	15.9455
3.716	16.4257
3.7	16.7036
3.685	16.8657
3.669	16.9057
3.653	16.9877
3.638	16.9838
3.623	16.9458
3.608	16.7675
3.593	16.7006
3.578	16.539
3.563	16.1259
3.548	15.5432
3.534	14.446
3.519	11.3711
3.505	7.9958
3.491	9.572
3.477	10.1469
3.463	9.186
3.449	7.2449
3.435	5.9272
3.422	4.9953
3.408	5.8577
3.395	6.5586
3.382	7.0249
3.369	7.0996
3.355	6.9013
3.342	7.1948
3.33	8.906
3.317	10.5945
3.304	11.7151
3.292	12.6032
3.279	13.9333
3.267	14.8635
3.254	15.2473
3.242	15.4809
3.23	15.6418
3.218	15.7585
3.206	15.9057
3.194	15.9904
3.182	16.103
3.171	16.0876
3.159	16.0744
3.148	15.9963
3.136	15.7658
3.125	15.6745
3.114	15.7661
3.102	15.6584
3.091	15.8159
3.08	16.0742
3.069	16.2368
3.058	16.394
3.048	16.5207
3.037	16.5776
3.026	16.6213
3.016	16.6391
3.005	16.6682
2.995	16.7172
2.985	16.7729
2.974	16.8266
2.964	16.9006
2.954	16.9541
2.944	17.0239
2.934	17.0649
2.924	17.1428
2.914	17.2124
2.904	17.3212
2.895	17.4099
2.885	17.4921
2.875	17.5405
2.866	17.6806
2.856	17.8002
2.847	17.8947
2.838	17.945
2.828	17.9399
2.819	17.7485
2.81	17.3977
2.801	17.5537
2.792	17.7417
2.783	17.2915
2.774	18.0654
2.765	18.5043
2.756	18.9882
2.747	19.3906
2.739	19.6992
2.73	19.9072
2.721	20.0512
2.713	20.1408
2.704	20.1618
2.696	20.2758
2.687	20.4262
2.679	20.6315
2.671	20.7075
2.663	20.7714
2.654	20.7675
2.646	20.7578
2.638	20.791
2.63	20.8051
2.622	20.8056
2.614	20.7939
2.606	20.746
2.599	20.748
2.591	20.7514
2.583	20.5971
2.575	20.3232
2.568	19.9924
2.56	19.7316
2.553	19.4775
2.545	19.0832
2.538	18.8576
2.53	18.5864
2.523	18.2238
2.515	18.298
2.508	18.465
2.501	18.7636
2.494	18.976
2.486	19.2062
2.479	19.3593
2.472	19.4682
2.465	19.5637
2.458	19.6655
2.451	19.8508
2.444	20.0009
2.437	20.1955
2.43	20.3623
2.424	20.4816
2.417	20.5566
2.41	20.6406
2.403	20.6845
2.397	20.6796
2.39	20.6887
2.384	20.6811
2.377	20.6767
2.37	20.5351
2.364	20.4199
2.358	20.2099
2.351	19.9855
2.345	19.812
2.338	19.7495
2.332	19.7045
2.326	19.6826
2.32	19.6176
2.313	19.6342
2.307	19.6333
2.301	19.6757
2.295	19.7226
2.289	19.7841
2.283	19.8613
2.277	19.9804
2.271	20.0302
2.265	20.0864
2.259	20.1513
2.253	20.2026
2.247	20.2622
2.241	20.248
2.236	20.3789
2.23	20.4199
2.224	20.4145
2.218	20.5009
2.213	20.5053
2.207	20.5722
2.201	20.5336
2.196	20.5605
2.19	20.6157
2.185	20.6015
2.179	20.5917
2.174	20.5546
2.168	20.604
2.163	20.6484
2.157	20.6162
2.152	20.5273
2.147	20.5019
2.141	20.5468
2.136	20.5649
2.131	20.6083
2.126	20.6386
2.12	20.6445
2.115	20.6625
2.11	20.6357
2.105	20.6425
2.1	20.6918
2.095	20.7001
2.09	20.747
2.085	20.7519
2.079	20.7919
