Name: Hypersthene (Mg,Fe+2)2Si2O6
Type: Mineral
Class: Silicates
Subclass: Inosilicates (Pyroxene Group)
Particle Size: Course  (74-250 micrometers)
Sample No.: hypersth.1
Owner: JHU
Wavelength Range: IR
Origin: Western Greenland, via the Smithsonian (sample no. NMNH
Description: Black in color; a small amount of surface contamination
Measurement: Bidirectional reflectance
X Units: Wavelength (micrometers)
Y Units: Reflectance (percent)
wavelength	value
25.0442	4.9731
24.3388	4.4807
23.6719	4.6147
23.0407	5.4912
22.4422	6.185
21.8741	5.9712
21.334	5.3938
20.8199	6.1179
20.33	7.5559
19.8627	8.8376
19.4163	9.2446
18.9896	7.5083
18.5812	7.4988
18.19	7.1557
17.815	6.4949
17.4551	6.9162
17.1094	5.6125
16.7772	4.4951
16.4576	3.3889
16.15	2.2544
15.8537	2.4624
15.568	2.4895
15.2925	2.2634
15.0265	2.094
14.7697	2.2937
14.5214	2.7417
14.2814	2.3975
14.0492	2.3184
13.8244	2.4543
13.6067	2.1816
13.3957	2.3423
13.1912	2.404
12.9929	2.3413
12.8004	2.4841
12.6135	2.6799
12.432	2.8572
12.2557	3.0786
12.0843	3.3445
11.9176	3.6152
11.7555	3.9392
11.5977	4.3486
11.444	4.8274
11.2944	4.8616
11.1487	4.1902
11.0067	3.8325
10.8682	4.3794
10.7332	4.72
10.6015	4.9949
10.473	5.5393
10.3476	5.6328
10.2251	5.8606
10.1056	5.3608
9.98873	5.0369
9.87458	4.5288
9.763	5.1855
9.65392	6.01
9.54724	6.8428
9.44291	7.2954
9.34082	7.1042
9.24091	6.885
9.14312	6.7973
9.04739	6.801
8.95363	6.7673
8.8618	6.3679
8.77183	6.1929
8.68368	4.8396
8.59727	2.6482
8.51257	0.981
8.42951	0.603
8.34807	0.6914
8.26819	0.7913
8.18981	0.894
8.11292	0.9949
8.03745	1.0808
7.96337	1.1748
7.89064	1.2541
7.81924	1.3228
7.74911	1.4065
7.68023	1.4822
7.61256	1.5642
7.54608	1.6306
7.48074	1.7021
7.41653	1.7751
7.35341	1.8418
7.29136	1.9206
7.23034	1.9736
7.17033	2.0244
7.11132	2.0664
7.05327	2.0962
6.99616	2.126
6.93996	2.145
6.88467	2.1816
6.83024	2.2173
6.77667	2.2334
6.72393	2.2429
6.67201	2.2417
6.62089	2.2446
6.57054	2.2881
6.52095	2.3086
6.4721	2.2817
6.42398	2.227
6.37657	2.1526
6.32986	2.0857
6.28382	2.0637
6.23845	2.0718
6.19373	2.0801
6.14965	2.1143
6.10619	2.1567
6.06334	2.1685
6.02109	2.1885
5.97942	2.2305
5.93832	2.3296
5.89778	2.4131
5.8578	2.4287
5.81835	2.4031
5.77943	2.3896
5.74103	2.4165
5.70314	2.4341
5.66574	2.4224
5.62883	2.4148
5.5924	2.4509
5.55644	2.5308
5.52093	2.6074
5.48588	2.6216
5.45127	2.6096
5.41709	2.6309
5.38334	2.688
5.35	2.7051
5.31708	2.6728
5.28456	2.5842
5.25243	2.4973
5.2207	2.4221
5.18934	2.3442
5.15836	2.3122
5.12775	2.3457
5.09749	2.404
5.0676	2.4866
5.03805	2.5698
5.00884	2.6128
4.97998	2.6421
4.95144	2.6738
4.92322	2.7139
4.89533	2.749
4.86775	2.7712
4.84048	2.834
4.81351	2.9282
4.78684	3.0347
4.76047	3.123
4.73439	3.1995
4.70859	3.2827
4.68306	3.3906
4.65782	3.5342
4.63284	3.6758
4.60814	3.8079
4.58369	3.9084
4.5595	3.9656
4.53557	4.0173
4.51188	4.0539
4.48845	4.0701
4.46525	4.0779
4.44229	4.0847
4.41957	4.0969
4.39708	4.1182
4.37481	4.1213
4.35277	4.1321
4.33096	4.135
4.30935	4.1418
4.28797	4.1433
4.26679	4.154
4.24583	4.1745
4.22506	4.198
4.2045	4.2126
4.18414	4.2244
4.16398	4.2331
4.14401	4.2495
4.12423	4.2573
4.10464	4.262
4.08523	4.2781
4.066	4.2825
4.04696	4.3064
4.02809	4.3052
4.0094	4.311
3.99088	4.3174
3.97253	4.3296
3.95435	4.343
3.93634	4.3442
3.91848	4.3601
3.90079	4.3664
3.88326	4.386
3.86589	4.3865
3.84867	4.4055
3.8316	4.4175
3.81468	4.4182
3.79791	4.4355
3.78129	4.4453
3.76482	4.4509
3.74848	4.4548
3.73229	4.4795
3.71624	4.4778
3.70032	4.4814
3.68454	4.4751
3.6689	4.4929
3.65338	4.49
3.638	4.4812
3.62275	4.5078
3.60762	4.5083
3.59262	4.5107
3.57775	4.5098
3.56299	4.5051
3.54836	4.5022
3.53385	4.5078
3.51945	4.512
3.50517	4.4953
3.49101	4.5185
3.47696	4.529
3.46303	4.5281
3.4492	4.5207
3.43549	4.53
3.42188	4.529
3.40838	4.5317
3.39499	4.5378
3.38171	4.5456
3.36852	4.5459
3.35544	4.5386
3.34246	4.5464
3.32958	4.55
3.3168	4.5559
3.30411	4.531
3.29153	4.5369
3.27903	4.5298
3.26664	4.5276
3.25433	4.5139
3.24212	4.5015
3.23	4.4844
3.21797	4.489
3.20603	4.4726
3.19418	4.459
3.18241	4.449
3.17074	4.4309
3.15914	4.4231
3.14763	4.4033
3.13621	4.3879
3.12487	4.3769
3.11361	4.3437
3.10243	4.3349
3.09133	4.3413
3.0803	4.3154
3.06936	4.3164
3.0585	4.3374
3.04771	4.3218
3.037	4.3176
3.02636	4.291
3.0158	4.2727
3.00531	4.2629
2.99489	4.2366
2.98454	4.2224
2.97427	4.1951
2.96407	4.1731
2.95393	4.1338
2.94387	4.0871
2.93387	4.0596
2.92394	4.0293
2.91408	4.0222
2.90429	4.0347
2.89456	4.0417
2.88489	4.0456
2.87529	4.0605
2.86576	4.0447
2.85628	4.0239
2.84687	4.0215
2.83752	4.022
2.82823	4.009
2.81901	4.0027
2.80984	3.9455
2.80073	3.9553
2.79168	3.9741
2.78269	3.979
2.77376	3.9805
2.76488	3.9902
2.75606	3.9895
2.7473	3.9988
2.73859	3.9675
2.72994	3.9524
2.72134	4.0906
2.7128	4.4119
2.70431	4.6604
2.69587	4.8808
2.68748	5.021
2.67915	5.0869
2.67087	5.0754
2.66264	5.1184
2.65446	5.1138
2.64633	5.0974
2.63825	5.1008
2.63021	5.0718
2.62223	5.095
2.6143	5.063
2.60641	5.0459
2.59857	5.0449
2.59078	5.061
2.58304	5.0679
2.57534	5.0315
2.56768	5.022
2.56008	5.0151
2.55251	5.0183
2.54499	5.0229
2.53752	4.9878
2.53009	4.9756
2.5227	4.9741
2.51536	4.937
2.50806	4.9109
2.5008	4.9202
2.49358	4.8901
2.4864	4.8891
2.47927	4.8765
2.47218	4.8826
2.46512	4.8342
2.45811	4.8013
2.45114	4.801
2.4442	4.7651
2.43731	4.7624
2.43045	4.7419
2.42363	4.7251
2.41685	4.7114
2.41011	4.6687
2.40341	4.687
2.39674	4.6301
2.39011	4.6116
2.38352	4.5937
2.37696	4.5654
2.37044	4.5395
2.36395	4.5078
2.35751	4.5066
2.35109	4.4883
2.34471	4.4263
2.33836	4.4143
2.33205	4.3782
2.32578	4.3464
2.31953	4.3083
2.31332	4.2917
2.30714	4.2466
2.301	4.208
2.29489	4.1838
2.28881	4.1924
2.28276	4.1352
2.27675	4.1238
2.27076	4.103
2.26481	4.06
2.25889	4.0278
2.253	3.99
2.24714	3.9668
2.24131	3.9355
2.23551	3.915
2.22974	3.8345
2.224	3.8057
2.21829	3.7739
2.21261	3.7612
2.20696	3.7136
2.20134	3.6604
2.19574	3.6277
2.19018	3.6299
2.18464	3.5664
2.17913	3.5527
2.17365	3.5122
2.16819	3.4604
2.16277	3.4067
2.15737	3.4311
2.15199	3.3252
2.14665	3.3303
2.14133	3.2983
2.13603	3.2515
2.13077	3.2056
2.12552	3.1636
2.12031	3.2002
2.11512	3.0835
2.10995	3.072
2.10481	3.0498
2.0997	3.0054
2.09461	2.9585
2.08954	2.9436
2.0845	2.8828
2.07948	2.8774
