Name: Hornblende Ca2(Fe+2,Mg)4Al(Si7Al)O22(OH,F)2
Type: Mineral
Class: Silicates
Subclass: Inosilicates (Amphibole Group)
Particle Size: Fine  (Less than 2 micrometers)
Sample No.: hornblen.1
Owner: JHU
Wavelength Range: IR
Origin: Gore Mountain, New York via Hunt and Salisbury Collection,
Description: The specimen was a cluster of very dark green single
Measurement: Transmission
X Units: Wavelength (micrometers)
Y Units: Transmittance (percent)
wavelength	value
25.0442	65.2655
24.3388	61.4686
23.6719	57.9256
23.0407	53.6112
22.4422	48.8749
21.8741	43.1952
21.334	39.5487
20.8199	41.3124
20.33	44.5311
19.8627	44.5429
19.4163	44.0829
18.9896	46.7782
18.5812	51.7704
18.19	57.9383
17.815	64.0076
17.4551	68.2274
17.1094	70.992
16.7772	72.3514
16.4576	72.6453
16.15	72.3992
15.8537	72.2811
15.568	73.0135
15.2925	73.0164
15.0265	72.1248
14.7697	71.741
14.5214	72.0027
14.2814	72.2586
14.0492	73.1619
13.8244	73.9373
13.6067	73.4476
13.3957	73.6092
13.1912	74.4222
12.9929	75.2308
12.8004	75.24
12.6135	75.844
12.432	76.4202
12.2557	76.9793
12.0843	75.7034
11.9176	72.0628
11.7555	66.7557
11.5977	61.0863
11.444	56.5257
11.2944	53.3714
11.1487	49.8173
11.0067	45.2968
10.8682	40.2704
10.7332	34.7177
10.6015	30.1098
10.473	27.9003
10.3476	26.434
10.2251	24.977
10.1056	24.1718
9.98873	25.5527
9.87458	27.874
9.763	29.5107
9.65392	30.5019
9.54724	31.4618
9.44291	32.8066
9.34082	35.0356
9.24091	38.5653
9.14312	43.1215
9.04739	48.6644
8.95363	54.5321
8.8618	59.4403
8.77183	64.3343
8.68368	68.8475
8.59727	72.617
8.51257	76.3616
8.42951	80.1199
8.34807	83.7969
8.26819	86.9099
8.18981	89.2405
8.11292	90.8875
8.03745	92.0076
7.96337	92.6502
7.89064	93.0723
7.81924	93.49
7.74911	93.9836
7.68023	94.1943
7.61256	94.3416
7.54608	94.5117
7.48074	94.7129
7.41653	94.7061
7.35341	94.6116
7.29136	94.4258
7.23034	94.2068
7.17033	93.6709
7.11132	93.3438
7.05327	93.0896
6.99616	93.2361
6.93996	93.4744
6.88467	93.7947
6.83024	94.2039
6.77667	94.8113
6.72393	95.0938
6.67201	95.0828
6.62089	95.0471
6.57054	95.0667
6.52095	94.8772
6.4721	94.4346
6.42398	93.9627
6.37657	93.366
6.32986	92.7285
6.28382	92.0496
6.23845	91.2402
6.19373	90.3884
6.14965	89.7332
6.10619	90.1228
6.06334	91.0498
6.02109	92.2627
5.97942	93.7197
5.93832	95.1592
5.89778	96.0828
5.8578	96.6123
5.81835	97.2615
5.77943	97.7136
5.74103	98.0576
5.70314	98.2869
5.66574	98.427
5.62883	98.5762
5.5924	98.6182
5.55644	98.5781
5.52093	98.7205
5.48588	98.8035
5.45127	98.8918
5.41709	98.9597
5.38334	98.9333
5.35	99.0085
5.31708	99.0525
5.28456	99.0603
5.25243	99.0906
5.2207	99.1289
5.18934	99.1648
5.15836	99.1882
5.12775	99.1865
5.09749	99.1882
5.0676	99.2048
5.03805	99.2287
5.00884	99.2424
4.97998	99.2751
4.95144	99.2927
4.92322	99.2678
4.89533	99.3
4.86775	99.324
4.84048	99.3567
4.81351	99.3454
4.78684	99.3953
4.76047	99.4177
4.73439	99.4319
4.70859	99.4084
4.68306	99.3811
4.65782	99.3679
4.63284	99.405
4.60814	99.3733
4.58369	99.405
4.5595	99.3537
4.53557	99.3142
4.51188	99.2961
4.48845	99.282
4.46525	99.2107
4.44229	99.199
4.41957	99.1941
4.39708	99.1838
4.37481	99.1843
4.35277	99.114
4.33096	99.0705
4.30935	99.032
4.28797	99.0124
4.26679	98.9988
4.24583	99.0515
4.22506	99.0583
4.2045	98.9538
4.18414	98.9372
4.16398	98.9656
4.14401	98.967
4.12423	98.9182
4.10464	98.9392
4.08523	98.9792
4.066	98.9236
4.04696	98.9099
4.02809	98.8982
4.0094	98.7888
3.99088	98.6746
3.97253	98.6687
3.95435	98.7019
3.93634	98.6902
3.91848	98.7283
3.90079	98.6072
3.88326	98.4958
3.86589	98.4241
3.84867	98.3767
3.8316	98.283
3.81468	98.1765
3.79791	98.1038
3.78129	98.0369
3.76482	97.8718
3.74848	97.7522
3.73229	97.5984
3.71624	97.4592
3.70032	97.2966
3.68454	97.1995
3.6689	97.0759
3.65338	96.9646
3.638	96.762
3.62275	96.6404
3.60762	96.4402
3.59262	96.3201
3.57775	96.1374
3.56299	95.9963
3.54836	95.7478
3.53385	95.4397
3.51945	95.0393
3.50517	94.2087
3.49101	94.2507
3.47696	94.3167
3.46303	94.1794
3.4492	93.8552
3.43549	93.2581
3.42188	92.2835
3.40838	92.2058
3.39499	92.6697
3.38171	92.6448
3.36852	92.7249
3.35544	92.6453
3.34246	92.5603
3.32958	92.3948
3.3168	92.242
3.30411	92.0173
3.29153	91.8284
3.27903	91.6951
3.26664	91.406
3.25433	91.0681
3.24212	90.8152
3.23	90.5388
3.21797	90.3132
3.20603	89.9265
3.19418	89.7088
3.18241	89.3816
3.17074	89.073
3.15914	88.6687
3.14763	88.2566
3.13621	87.9646
3.12487	87.5691
3.11361	87.1677
3.10243	86.7302
3.09133	86.3396
3.0803	85.8836
3.06936	85.5359
3.0585	85.242
3.04771	84.9656
3.037	84.5525
3.02636	84.1873
3.0158	83.6619
3.00531	82.9851
2.99489	82.2478
2.98454	81.5281
2.97427	80.6834
2.96407	79.6463
2.95393	78.9139
2.94387	78.2244
2.93387	77.5594
2.92394	77.24
2.91408	77.1219
2.90429	77.2791
2.89456	77.4998
2.88489	77.783
2.87529	78.2312
2.86576	78.6795
2.85628	79.0994
2.84687	79.7391
2.83752	80.4764
2.82823	81.2898
2.81901	82.1873
2.80984	83.115
2.80073	84.0906
2.79168	85.4099
2.78269	86.7263
2.77376	88.0945
2.76488	89.5828
2.75606	91.1921
2.7473	92.532
2.73859	93.7429
2.72994	94.8904
2.72134	95.6794
2.7128	96.3396
2.70431	97.1843
2.69587	97.9148
2.68748	98.3943
2.67915	98.696
2.67087	98.8201
2.66264	98.8787
2.65446	98.8992
2.64633	98.8591
2.63825	98.9177
2.63021	98.8611
2.62223	98.8923
2.6143	98.8259
2.60641	98.8708
2.59857	98.8083
2.59078	99.0701
2.58304	99.113
2.57534	98.9431
2.56768	98.8083
2.56008	98.9372
2.55251	98.9333
2.54499	98.9685
2.53752	98.9841
2.53009	98.8122
2.5227	98.7673
2.51536	98.9626
2.50806	99.0095
2.5008	99.113
2.49358	98.9626
2.4864	98.8083
2.47927	99.1658
2.47218	99.072
2.46512	99.0486
2.45811	99.2126
2.45114	99.0974
2.4442	98.8064
2.43731	99.1443
2.43045	99.1423
2.42363	98.9236
2.41685	99.0017
2.41011	99.1872
2.40341	98.8904
2.39674	98.9529
2.39011	98.9001
2.38352	98.9685
2.37696	99.197
2.37044	99.2751
2.36395	99.0954
2.35751	98.9001
2.35109	98.8298
2.34471	98.9724
2.33836	98.9607
2.33205	98.8982
2.32578	98.8298
2.31953	99.1111
2.31332	99.0329
2.30714	98.9704
2.301	98.9626
2.29489	99.2126
2.28881	99.0154
2.28276	98.8826
2.27675	98.9079
2.27076	98.9763
2.26481	98.8865
2.25889	99.0427
2.253	98.9685
2.24714	98.6013
2.24131	98.8708
2.23551	99.0818
2.22974	98.7732
2.224	98.6872
2.21829	98.613
2.21261	98.7185
2.20696	98.9333
2.20134	98.9685
2.19574	98.7537
2.19018	98.9138
2.18464	98.7029
2.17913	98.7263
2.17365	99.0466
2.16819	98.9763
2.16277	99.1638
2.15737	98.6951
2.15199	98.8279
2.14665	98.7888
2.14133	98.8044
2.13603	98.7849
2.13077	98.8669
2.12552	98.7576
2.12031	99.0544
2.11512	98.8122
2.10995	98.7224
2.10481	98.7263
2.0997	98.7849
2.09461	98.6091
2.08954	98.8747
2.0845	98.8318
2.07948	98.6247
