Name: Mordenite (Ca,Na2,K2)Al2Si10O24.7H2O
Type: Mineral
Class: Silicates
Subclass: Tectosilicates (Framework Silicates); (ZeoliteGroup)
Particle Size: Fine  (0-74  Micrometers)
Sample No.: morden.1
Owner: JHU
Wavelength Range: IR
Origin: Union Pass, Arizona via W. J. Ehmann #10
Description: The sample consisted of small transparent crystals of
Measurement: Bidirectional reflectance
X Units: Wavelength (micrometers)
Y Units: Reflectance (percent)
wavelength	value
25.0442	0.9133
24.3388	1.177
23.6719	1.104
23.0407	1.1103
22.4422	1.0654
21.8741	1.1113
21.334	1.1257
20.8199	1.0464
20.33	0.7842
19.8627	0.606
19.4163	0.6194
18.9896	0.6594
18.5812	0.6155
18.19	0.647
17.815	0.5701
17.4551	0.6038
17.1094	0.5557
16.7772	0.5432
16.4576	0.6282
16.15	0.6558
15.8537	0.5967
15.568	0.6284
15.2925	0.7014
15.0265	0.8101
14.7697	0.8015
14.5214	0.8013
14.2814	0.803
14.0492	0.8276
13.8244	0.8096
13.6067	0.8064
13.3957	0.8611
13.1912	0.9194
12.9929	0.9309
12.8004	0.8843
12.6135	0.8662
12.432	0.874
12.2557	1.0566
12.0843	1.6077
11.9176	2.1555
11.7555	2.3279
11.5977	2.2776
11.444	2.1133
11.2944	2.0715
11.1487	2.029
11.0067	1.9219
10.8682	1.8511
10.7332	1.7275
10.6015	1.5537
10.473	1.3313
10.3476	1.1345
10.2251	0.9875
10.1056	0.9043
9.98873	0.8818
9.87458	0.8748
9.763	0.9141
9.65392	0.9558
9.54724	1.0056
9.44291	1.0305
9.34082	1.0583
9.24091	1.1243
9.14312	1.1382
9.04739	1.1072
8.95363	1.011
8.8618	0.9058
8.77183	0.8491
8.68368	0.8218
8.59727	0.8113
8.51257	0.7998
8.42951	0.8054
8.34807	0.802
8.26819	0.8042
8.18981	0.8757
8.11292	1.0911
8.03745	1.3828
7.96337	1.478
7.89064	1.1926
7.81924	0.7573
7.74911	0.4023
7.68023	0.2627
7.61256	0.302
7.54608	0.437
7.48074	0.6423
7.41653	0.8823
7.35341	1.1282
7.29136	1.3667
7.23034	1.6003
7.17033	1.8013
7.11132	1.9868
7.05327	2.1206
6.99616	2.2576
6.93996	2.3953
6.88467	2.5225
6.83024	2.6367
6.77667	2.7739
6.72393	2.9133
6.67201	3.0339
6.62089	3.1418
6.57054	3.2229
6.52095	3.3057
6.4721	3.334
6.42398	3.2639
6.37657	3.1301
6.32986	2.8674
6.28382	2.4338
6.23845	1.7956
6.19373	1.1445
6.14965	0.8235
6.10619	0.7483
6.06334	0.7947
6.02109	0.9661
5.97942	1.3791
5.93832	2.0432
5.89778	2.8545
5.8578	3.5522
5.81835	3.9917
5.77943	4.2986
5.74103	4.4582
5.70314	4.5513
5.66574	4.5947
5.62883	4.6001
5.5924	4.5737
5.55644	4.5354
5.52093	4.5149
5.48588	4.5127
5.45127	4.5361
5.41709	4.5901
5.38334	4.6724
5.35	4.7663
5.31708	4.9368
5.28456	5.103
5.25243	5.2598
5.2207	5.3572
5.18934	5.4182
5.15836	5.4634
5.12775	5.5266
5.09749	5.6167
5.0676	5.7373
5.03805	5.8743
5.00884	6.0264
4.97998	6.197
4.95144	6.3728
4.92322	6.5586
4.89533	6.7434
4.86775	6.8926
4.84048	7.0068
4.81351	7.0932
4.78684	7.1333
4.76047	7.164
4.73439	7.1909
4.70859	7.2075
4.68306	7.2283
4.65782	7.2314
4.63284	7.251
4.60814	7.2678
4.58369	7.2959
4.5595	7.3249
4.53557	7.3716
4.51188	7.4245
4.48845	7.5105
4.46525	7.5925
4.44229	7.6997
4.41957	7.8127
4.39708	7.9306
4.37481	8.0608
4.35277	8.207
4.33096	8.3533
4.30935	8.4922
4.28797	8.6294
4.26679	8.759
4.24583	8.9167
4.22506	9.0588
4.2045	9.1902
4.18414	9.3081
4.16398	9.4272
4.14401	9.5456
4.12423	9.6518
4.10464	9.751
4.08523	9.8486
4.066	9.9338
4.04696	10.021
4.02809	10.0761
4.0094	10.1155
3.99088	10.1186
3.97253	10.1467
3.95435	10.1946
3.93634	10.239
3.91848	10.2602
3.90079	10.2517
3.88326	10.2505
3.86589	10.2209
3.84867	10.1865
3.8316	10.1614
3.81468	10.1269
3.79791	10.0688
3.78129	10.0119
3.76482	9.9531
3.74848	9.8779
3.73229	9.7912
3.71624	9.7026
3.70032	9.6191
3.68454	9.5066
3.6689	9.3972
3.65338	9.2739
3.638	9.1614
3.62275	9.0266
3.60762	8.8899
3.59262	8.7422
3.57775	8.5896
3.56299	8.4311
3.54836	8.2602
3.53385	8.0688
3.51945	7.8491
3.50517	7.6242
3.49101	7.4695
3.47696	7.3059
3.46303	7.1296
3.4492	6.9097
3.43549	6.664
3.42188	6.4111
3.40838	6.196
3.39499	6.0266
3.38171	5.8049
3.36852	5.6045
3.35544	5.4065
3.34246	5.1958
3.32958	4.9726
3.3168	4.7493
3.30411	4.5271
3.29153	4.3108
3.27903	4.0891
3.26664	3.8857
3.25433	3.6702
3.24212	3.4585
3.23	3.2615
3.21797	3.0791
3.20603	2.8833
3.19418	2.7056
3.18241	2.5271
3.17074	2.3628
3.15914	2.1963
3.14763	2.0454
3.13621	1.9121
3.12487	1.7861
3.11361	1.6724
3.10243	1.5718
3.09133	1.4897
3.0803	1.4299
3.06936	1.385
3.0585	1.345
3.04771	1.3208
3.037	1.3052
3.02636	1.2729
3.0158	1.2368
3.00531	1.1885
2.99489	1.1404
2.98454	1.0837
2.97427	1.0435
2.96407	0.9956
2.95393	0.9709
2.94387	0.9526
2.93387	0.9214
2.92394	0.9102
2.91408	0.8955
2.90429	0.8794
2.89456	0.8787
2.88489	0.8767
2.87529	0.8835
2.86576	0.8821
2.85628	0.8796
2.84687	0.8625
2.83752	0.8555
2.82823	0.8286
2.81901	0.8203
2.80984	0.8057
2.80073	0.7815
2.79168	0.7622
2.78269	0.75
2.77376	0.751
2.76488	0.7563
2.75606	0.7837
2.7473	0.8674
2.73859	1.0139
2.72994	1.2976
2.72134	1.8174
2.7128	2.7556
2.70431	3.772
2.69587	4.6142
2.68748	5.2663
2.67915	5.7869
2.67087	6.2253
2.66264	6.7939
2.65446	7.0981
2.64633	7.3335
2.63825	7.5361
2.63021	7.6199
2.62223	7.7895
2.6143	7.8552
2.60641	7.8843
2.59857	7.9731
2.59078	8.0075
2.58304	7.9944
2.57534	8.0581
2.56768	8.0864
2.56008	8.0901
2.55251	8.1345
2.54499	8.216
2.53752	8.2683
2.53009	8.3157
2.5227	8.395
2.51536	8.4895
2.50806	8.5564
2.5008	8.6325
2.49358	8.7175
2.4864	8.812
2.47927	8.9153
2.47218	8.9875
2.46512	9.0764
2.45811	9.1943
2.45114	9.2998
2.4442	9.4348
2.43731	9.5395
2.43045	9.6765
2.42363	9.7947
2.41685	9.9707
2.41011	10.1133
2.40341	10.2563
2.39674	10.3857
2.39011	10.5263
2.38352	10.6555
2.37696	10.7964
2.37044	10.9267
2.36395	11.0156
2.35751	11.143
2.35109	11.2368
2.34471	11.3193
2.33836	11.3701
2.33205	11.4577
2.32578	11.5405
2.31953	11.5495
2.31332	11.6352
2.30714	11.6508
2.301	11.7026
2.29489	11.7011
2.28881	11.7431
2.28276	11.7553
2.27675	11.7561
2.27076	11.7773
2.26481	11.7622
2.25889	11.7783
2.253	11.7558
2.24714	11.7778
2.24131	11.7768
2.23551	11.8042
2.22974	11.8027
2.224	11.7846
2.21829	11.8427
2.21261	11.8318
2.20696	11.8637
2.20134	11.8867
2.19574	11.9179
2.19018	11.9702
2.18464	11.979
2.17913	12.0395
2.17365	12.061
2.16819	12.1133
2.16277	12.1631
2.15737	12.1626
2.15199	12.1601
2.14665	12.1372
2.14133	12.1411
2.13603	12.1567
2.13077	12.1596
2.12552	12.1457
2.12031	12.1306
2.11512	12.1186
2.10995	12.1342
2.10481	12.101
2.0997	12.0815
2.09461	12.0935
2.08954	12.1235
2.0845	12.0996
2.07948	12.1023
