Name: Analcime NaAlSi2O6.H2O
Type: Mineral
Class: Silicates
Subclass: Tectosilicates  (Framework silicates) (Zeolite Group)
Particle Size: Fine (0-60 Micrometers)
Sample No.: analcime.1
Owner: JHU
Wavelength Range: IR
Origin: Sample from Mt. St. Hilaire, Quebec; donated by W. J. Ehmann
Description: The sample was only available to us as a fine (<60
Measurement: Bidirectional reflectance
X Units: Wavelength (micrometers)
Y Units: Reflectance (percent)
wavelength	value
25.044	1.0386
24.339	0.9297
23.672	0.8555
23.041	0.8711
22.442	1.1189
21.874	1.1428
21.334	0.8904
20.82	0.6165
20.33	0.4404
19.863	0.2856
19.416	0.3276
18.99	0.3066
18.581	0.3704
18.19	0.4185
17.815	0.48
17.455	0.5452
17.109	0.614
16.777	0.6077
16.458	0.5779
16.15	0.5972
15.854	0.6223
15.568	0.7537
15.292	0.8884
15.027	0.865
14.77	0.8855
14.521	0.8154
14.281	0.7222
14.049	0.667
13.824	0.6174
13.607	0.5364
13.396	0.4927
13.191	0.4297
12.993	0.4011
12.8	0.4431
12.614	0.8123
12.432	1.459
12.256	1.9341
12.084	2.261
11.918	2.4814
11.755	2.5674
11.598	2.5879
11.444	2.5461
11.294	2.4219
11.149	2.2568
11.007	2.041
10.868	1.7944
10.733	1.5679
10.602	1.3369
10.473	1.1367
10.348	0.9983
10.225	0.9893
10.106	1.0266
9.989	1.1077
9.875	1.2241
9.763	1.311
9.654	1.4058
9.547	1.5046
9.443	1.5195
9.341	1.3906
9.241	1.1536
9.143	0.9919
9.047	0.9675
8.954	1.0032
8.862	1.0527
8.772	1.0488
8.684	1.0239
8.597	1.0037
8.513	1.0115
8.43	0.9272
8.348	0.7703
8.268	0.5666
8.19	0.3481
8.113	0.1787
8.037	0.0974
7.963	0.1265
7.891	0.2605
7.819	0.4597
7.749	0.72
7.68	0.9919
7.613	1.281
7.546	1.5684
7.481	1.8237
7.417	2.0601
7.353	2.2529
7.291	2.425
7.23	2.5693
7.17	2.6775
7.111	2.7585
7.053	2.8423
6.996	2.9219
6.94	2.9795
6.885	2.9849
6.83	2.9551
6.777	2.9702
6.724	3.0564
6.672	3.2095
6.621	3.3747
6.571	3.5012
6.521	3.5373
6.472	3.4141
6.424	3.1382
6.377	2.8359
6.33	2.6221
6.284	2.407
6.238	2.032
6.194	1.2905
6.15	0.5242
6.106	0.3743
6.063	0.7512
6.021	1.4219
5.979	2.2266
5.938	2.7602
5.898	3.1103
5.858	3.3664
5.818	3.5342
5.779	3.6721
5.741	3.7778
5.703	3.9097
5.666	4.063
5.629	4.2295
5.592	4.3926
5.556	4.5408
5.521	4.7248
5.486	4.9368
5.451	5.155
5.417	5.3459
5.383	5.51
5.35	5.6572
5.317	5.8076
5.285	5.9587
5.252	6.0864
5.221	6.1655
5.189	6.2158
5.158	6.2883
5.128	6.3794
5.097	6.49
5.068	6.5976
5.038	6.6638
5.009	6.675
4.98	6.6343
4.951	6.5737
4.923	6.5198
4.895	6.5171
4.868	6.5979
4.84	6.7317
4.814	6.8542
4.787	6.9241
4.76	6.9739
4.734	7.0007
4.709	7.0422
4.683	7.1296
4.658	7.2727
4.633	7.4487
4.608	7.6413
4.584	7.8381
4.56	8.0388
4.536	8.2329
4.512	8.4079
4.488	8.5649
4.465	8.7309
4.442	8.9228
4.42	9.1372
4.397	9.3381
4.375	9.5249
4.353	9.6894
4.331	9.8376
4.309	9.9641
4.288	10.0747
4.267	10.1875
4.246	10.2822
4.225	10.372
4.205	10.4575
4.184	10.5293
4.164	10.5857
4.144	10.6362
4.124	10.6687
4.105	10.7058
4.085	10.7448
4.066	10.789
4.047	10.8225
4.028	10.8437
4.009	10.865
3.991	10.8774
3.973	10.8718
3.954	10.8816
3.936	10.9035
3.918	10.9226
3.901	10.9421
3.883	10.9494
3.866	10.9558
3.849	10.9521
3.832	10.9504
3.815	10.9314
3.798	10.9223
3.781	10.9153
3.765	10.9477
3.748	10.9538
3.732	10.9472
3.716	10.9196
3.7	10.886
3.685	10.8562
3.669	10.8261
3.653	10.7961
3.638	10.7578
3.623	10.7175
3.608	10.6787
3.593	10.6264
3.578	10.5739
3.563	10.5161
3.548	10.4599
3.534	10.4048
3.519	10.3391
3.505	10.2336
3.491	10.1894
3.477	10.1357
3.463	10.0796
3.449	9.9951
3.435	9.9031
3.422	9.7842
3.408	9.7046
3.395	9.6753
3.382	9.6054
3.369	9.5088
3.355	9.4341
3.342	9.3335
3.33	9.2326
3.317	9.1272
3.304	9.0051
3.292	8.8779
3.279	8.7456
3.267	8.6111
3.254	8.4543
3.242	8.2944
3.23	8.1406
3.218	7.9709
3.206	7.7932
3.194	7.5974
3.182	7.4053
3.171	7.1784
3.159	6.9341
3.148	6.696
3.136	6.4534
3.125	6.1604
3.114	5.8054
3.102	5.3911
3.091	4.9458
3.08	4.5754
3.069	4.2871
3.058	4.1267
3.048	4.0496
3.037	3.9924
3.026	3.9172
3.016	3.8074
3.005	3.6597
2.995	3.4912
2.985	3.2993
2.974	3.093
2.964	2.8701
2.954	2.6489
2.944	2.4136
2.934	2.1858
2.924	1.9751
2.914	1.7844
2.904	1.616
2.895	1.4443
2.885	1.3144
2.875	1.1892
2.866	1.1113
2.856	1.0244
2.847	0.9482
2.838	0.864
2.828	0.7791
2.819	0.7112
2.81	0.6953
2.801	0.7241
2.792	0.71
2.783	0.644
2.774	0.5603
2.765	0.533
2.756	0.6016
2.747	0.8628
2.739	1.5615
2.73	2.3664
2.721	2.949
2.713	3.5574
2.704	4.2329
2.696	4.896
2.687	5.4314
2.679	5.8081
2.671	6.1448
2.663	6.4465
2.654	6.7095
2.646	6.9546
2.638	7.1252
2.63	7.24
2.622	7.3254
2.614	7.3596
2.606	7.3264
2.599	7.2839
2.591	7.1701
2.583	7.0024
2.575	6.8069
2.568	6.5581
2.56	6.2934
2.553	6.0381
2.545	5.8608
2.538	5.8257
2.53	5.874
2.523	5.9712
2.515	6.0791
2.508	6.1333
2.501	6.1858
2.494	6.2468
2.486	6.3977
2.479	6.5784
2.472	6.8152
2.465	7.0759
2.458	7.3721
2.451	7.6782
2.444	7.9846
2.437	8.3213
2.43	8.6428
2.424	8.9302
2.417	9.1623
2.41	9.3369
2.403	9.4802
2.397	9.6189
2.39	9.7207
2.384	9.7827
2.377	9.8601
2.37	9.8987
2.364	9.9463
2.358	9.9677
2.351	10.0049
2.345	10.0088
2.338	10.0129
2.332	10.039
2.326	10.0678
2.32	10.0947
2.313	10.0918
2.307	10.1167
2.301	10.1274
2.295	10.1611
2.289	10.185
2.283	10.2104
2.277	10.2182
2.271	10.2177
2.265	10.2036
2.259	10.2412
2.253	10.251
2.247	10.2636
2.241	10.2536
2.236	10.2812
2.23	10.2983
2.224	10.2795
2.218	10.3086
2.213	10.3027
2.207	10.3301
2.201	10.3349
2.196	10.3327
2.19	10.3264
2.185	10.334
2.179	10.3547
2.174	10.3408
2.168	10.3884
2.163	10.3725
2.157	10.3711
2.152	10.3564
2.147	10.3491
2.141	10.3691
2.136	10.3838
2.131	10.3691
2.126	10.395
2.12	10.4768
2.115	10.4912
2.11	10.5144
2.105	10.6035
2.1	10.6018
2.095	10.6721
2.09	10.6936
2.085	10.6562
2.079	10.7234
