Name: Pyrophyllite Al2Si4010(OH)2
Type: Mineral
Class: Silicates
Subclass: Phyllosilicates (Sheet Silicates); Talk/Pyrophyllite Group
Particle Size: Coarse  (75 - 250  Micrometers)
Sample No.: pyroph.1
Owner: JHU
Wavelength Range: IR
Origin: Stanley, North Carolina, USA via Bruce Hemingway, USGS
Description: The sample consisted of clusters of white radiating
Measurement: Bidirectional reflectance
X Units: Wavelength (micrometers)
Y Units: Reflectance (percent)
wavelength	value
25.0442	6.0674
24.3388	6.4053
23.6719	5.3784
23.0407	6.2305
22.4422	6.6089
21.8741	7.3867
21.334	7.915
20.8199	9.06
20.33	9.4707
19.8627	7.1924
19.4163	6.6323
18.9896	9.041
18.5812	10.73
18.19	13.5971
17.815	14.4777
17.4551	12.8913
17.1094	10.7768
16.7772	12.5544
16.4576	11.9184
16.15	9.06
15.8537	8.0947
15.568	6.2109
15.2925	4.498
15.0265	3.1059
14.7697	2.5295
14.5214	2.7666
14.2814	3.0808
14.0492	3.5154
13.8244	3.8066
13.6067	3.5859
13.3957	4.0884
13.1912	4.6467
12.9929	4.9578
12.8004	5.0679
12.6135	4.9851
12.432	4.4031
12.2557	3.3779
12.0843	4.0261
11.9176	3.1897
11.7555	3.7151
11.5977	3.9014
11.444	4.7058
11.2944	5.0649
11.1487	5.1623
11.0067	4.8442
10.8682	4.9202
10.7332	4.8235
10.6015	4.8369
10.473	6.3579
10.3476	4.0486
10.2251	4.1374
10.1056	4.5776
9.98873	4.6379
9.87458	4.7204
9.763	4.802
9.65392	5.2019
9.54724	6.5141
9.44291	8.2053
9.34082	9.709
9.24091	11.8564
9.14312	13.3894
9.04739	12.9253
8.95363	8.4875
8.8618	13.895
8.77183	15.8144
8.68368	16.5295
8.59727	16.571
8.51257	16.0581
8.42951	15.2507
8.34807	14.1013
8.26819	12.5258
8.18981	10.4682
8.11292	8.5925
8.03745	6.9919
7.96337	5.4309
7.89064	4.0049
7.81924	3.0369
7.74911	2.5325
7.68023	2.3335
7.61256	2.3948
7.54608	2.6941
7.48074	3.2017
7.41653	3.636
7.35341	4.0832
7.29136	4.4038
7.23034	4.7925
7.17033	5.0525
7.11132	5.2695
7.05327	5.6487
6.99616	5.9014
6.93996	5.9343
6.88467	6.1326
6.83024	6.3044
6.77667	6.7546
6.72393	7.1902
6.67201	7.5429
6.62089	7.6487
6.57054	7.7002
6.52095	7.8464
6.4721	7.9326
6.42398	8.1106
6.37657	8.1653
6.32986	8.4458
6.28382	8.7473
6.23845	8.8664
6.19373	8.8503
6.14965	8.8589
6.10619	8.9487
6.06334	9.0781
6.02109	9.5136
5.97942	9.4465
5.93832	9.0273
5.89778	8.7961
5.8578	8.5032
5.81835	7.5234
5.77943	6.9658
5.74103	6.8779
5.70314	6.9809
5.66574	7.134
5.62883	7.1487
5.5924	7.0513
5.55644	6.969
5.52093	7.0305
5.48588	6.9888
5.45127	6.8618
5.41709	6.7241
5.38334	6.2646
5.35	5.4411
5.31708	4.9084
5.28456	5.0286
5.25243	6.1116
5.2207	6.7737
5.18934	7.1887
5.15836	7.8279
5.12775	8.0674
5.09749	7.9621
5.0676	7.937
5.03805	8.0183
5.00884	8.4028
4.97998	9.0046
4.95144	10.3349
4.92322	11.2898
4.89533	12.0517
4.86775	12.7932
4.84048	13.2041
4.81351	13.2866
4.78684	13.3435
4.76047	13.511
4.73439	13.6965
4.70859	13.83
4.68306	14.0654
4.65782	14.3945
4.63284	14.6543
4.60814	14.8203
4.58369	14.7692
4.5595	14.7385
4.53557	14.8117
4.51188	14.8652
4.48845	15.0317
4.46525	15.1594
4.44229	15.5166
4.41957	15.6828
4.39708	15.6997
4.37481	15.8061
4.35277	15.9108
4.33096	15.9807
4.30935	16.0012
4.28797	16.0388
4.26679	16.1772
4.24583	16.2905
4.22506	16.4201
4.2045	16.479
4.18414	16.5151
4.16398	16.5398
4.14401	16.5432
4.12423	16.5559
4.10464	16.5546
4.08523	16.5881
4.066	16.5966
4.04696	16.6137
4.02809	16.6291
4.0094	16.654
3.99088	16.6613
3.97253	16.676
3.95435	16.6838
3.93634	16.7085
3.91848	16.7314
3.90079	16.7431
3.88326	16.7561
3.86589	16.7453
3.84867	16.7385
3.8316	16.7399
3.81468	16.7168
3.79791	16.7146
3.78129	16.7209
3.76482	16.7236
3.74848	16.7297
3.73229	16.7346
3.71624	16.706
3.70032	16.5795
3.68454	16.1938
3.6689	16.2531
3.65338	16.4758
3.638	16.708
3.62275	16.8115
3.60762	16.8305
3.59262	16.8139
3.57775	16.8173
3.56299	16.8181
3.54836	16.8586
3.53385	16.8747
3.51945	16.8591
3.50517	16.8037
3.49101	16.8496
3.47696	16.8877
3.46303	16.9106
3.4492	16.883
3.43549	16.83
3.42188	16.716
3.40838	16.7497
3.39499	16.8215
3.38171	16.7871
3.36852	16.7836
3.35544	16.8112
3.34246	16.8281
3.32958	16.7966
3.3168	16.789
3.30411	16.7746
3.29153	16.7365
3.27903	16.7695
3.26664	16.8046
3.25433	16.7905
3.24212	16.758
3.23	16.7651
3.21797	16.7314
3.20603	16.7231
3.19418	16.6923
3.18241	16.5913
3.17074	16.468
3.15914	16.4431
3.14763	16.4958
3.13621	16.4868
3.12487	16.4482
3.11361	16.3366
3.10243	16.1626
3.09133	16.124
3.0803	16.0693
3.06936	15.916
3.0585	15.823
3.04771	15.7656
3.037	15.6106
3.02636	15.5
3.0158	15.1943
3.00531	14.7907
2.99489	14.7434
2.98454	14.4817
2.97427	14.1591
2.96407	14.5297
2.95393	14.9321
2.94387	15.2065
2.93387	14.9773
2.92394	14.2939
2.91408	14.5805
2.90429	14.6123
2.89456	14.2971
2.88489	14.1477
2.87529	13.4887
2.86576	13.1787
2.85628	13.2685
2.84687	13.455
2.83752	13.9824
2.82823	14.32
2.81901	14.247
2.80984	13.6731
2.80073	13.5981
2.79168	13.3806
2.78269	11.9624
2.77376	12.7168
2.76488	11.1655
2.75606	10.6098
2.7473	8.3301
2.73859	7.1924
2.72994	5.4287
2.72134	4.1655
2.7128	3.8789
2.70431	6.2749
2.69587	8.9897
2.68748	11.3115
2.67915	12.5136
2.67087	13.1604
2.66264	13.8401
2.65446	14.2736
2.64633	14.4157
2.63825	14.3532
2.63021	14.3398
2.62223	14.2832
2.6143	13.6499
2.60641	13.1674
2.59857	13.2595
2.59078	13.9797
2.58304	14.5234
2.57534	14.7011
2.56768	14.6445
2.56008	14.852
2.55251	14.7148
2.54499	14.7568
2.53752	15.0979
2.53009	15.0932
2.5227	14.8676
2.51536	14.6005
2.50806	14.4387
2.5008	14.4912
2.49358	14.5415
2.4864	14.7024
2.47927	14.8715
2.47218	15.1816
2.46512	15.2065
2.45811	15.1474
2.45114	15.1682
2.4442	15.09
2.43731	15.0664
2.43045	14.9223
2.42363	14.9895
2.41685	15.1992
2.41011	15.1504
2.40341	15.0666
2.39674	14.9921
2.39011	14.9511
2.38352	15.2124
2.37696	15.6047
2.37044	15.6748
2.36395	15.4882
2.35751	15.3715
2.35109	15.3125
2.34471	15.3078
2.33836	15.5117
2.33205	15.3906
2.32578	14.8488
2.31953	14.5498
2.31332	14.8662
2.30714	15.185
2.301	15.3925
2.29489	15.5752
2.28881	15.645
2.28276	15.7983
2.27675	16.1259
2.27076	16.269
2.26481	16.3852
2.25889	16.4775
2.253	16.5747
2.24714	16.6728
2.24131	16.6928
2.23551	16.7548
2.22974	16.7275
2.224	16.5752
2.21829	16.5419
2.21261	16.6577
2.20696	16.6181
2.20134	16.5942
2.19574	16.6972
2.19018	16.6464
2.18464	16.4257
2.17913	15.7968
2.17365	14.4863
2.16819	12.5937
2.16277	13.4087
2.15737	15.3501
2.15199	16.1547
2.14665	16.625
2.14133	16.8579
2.13603	16.9711
2.13077	17.1503
2.12552	17.2402
2.12031	17.3325
2.11512	17.4106
2.10995	17.4926
2.10481	17.5551
2.0997	17.6606
2.09461	17.6352
2.08954	17.6181
2.0845	17.4497
2.07948	17.4941
