Name: Augite (Ca,Na)(Mg,Fe,Al,Ti)(Si,Al)2O6
Type: Mineral
Class: Silicates
Subclass: Inosilicates (Pyroxene Group - single chain)
Particle Size: Fine (less than 75 Micrometers)
Sample No.: augite.1
Owner: JHU
Wavelength Range: IR
Origin: Sample from Monteagle Township, Hostings Co., Ontario,
Description: Sample consisted of  fragments of well-formed crystal(s),
Measurement: Bidirectional reflectance
X Units: Wavelength (micrometers)
Y Units: Reflectance (percent)
wavelength	value
25.044	2.5498
24.339	2.4419
23.672	2.6055
23.041	2.7842
22.442	3.1797
21.874	3.3584
21.334	3.3205
20.82	2.9155
20.33	2.8887
19.863	3.1042
19.416	3.2798
18.99	3.3096
18.581	3.4387
18.19	3.5461
17.815	3.3393
17.455	3.0469
17.109	2.665
16.777	2.313
16.458	1.9265
16.15	1.7539
15.854	1.5276
15.568	1.5544
15.292	1.8926
15.027	1.8984
14.77	1.9204
14.521	2.7158
14.281	3.4407
14.049	4.1191
13.824	4.7534
13.607	4.8791
13.396	4.612
13.191	4.3418
12.993	3.991
12.8	3.6929
12.614	3.6357
12.432	3.4175
12.256	2.9375
12.084	2.585
11.918	2.3955
11.755	2.4963
11.598	2.7102
11.444	2.7849
11.294	2.7436
11.149	2.7129
11.007	2.7317
10.868	2.7305
10.733	2.5923
10.602	2.7451
10.473	2.6143
10.348	2.4456
10.225	1.7566
10.106	1.3896
9.989	1.4497
9.875	1.5566
9.763	1.593
9.654	1.6155
9.547	1.8899
9.443	2.385
9.341	2.758
9.241	2.9138
9.143	3.0862
9.047	3.3352
8.954	3.7502
8.862	3.988
8.772	4.0298
8.684	3.374
8.597	2.4036
8.513	1.8904
8.43	1.8743
8.348	2.1655
8.268	2.6118
8.19	3.1516
8.113	3.7849
8.037	4.5483
7.963	5.3242
7.891	5.9265
7.819	6.4934
7.749	7.0317
7.68	7.5212
7.613	7.9248
7.546	8.2954
7.481	8.656
7.417	8.9726
7.353	9.1001
7.291	9.2243
7.23	9.4516
7.17	9.6977
7.111	10.0178
7.053	10.3218
6.996	10.5879
6.94	10.6631
6.885	10.4875
6.83	10.2512
6.777	9.8481
6.724	9.1614
6.672	8.8911
6.621	8.8672
6.571	8.5632
6.521	8.3806
6.472	8.4949
6.424	8.8725
6.377	9.3188
6.33	9.5229
6.284	9.7016
6.238	9.9905
6.194	10.0876
6.15	9.8576
6.106	9.9009
6.063	10.1875
6.021	10.5034
5.979	11.5478
5.938	12.6745
5.898	13.3315
5.858	13.6318
5.818	14.0752
5.779	14.5473
5.741	14.8325
5.703	14.9914
5.666	15.0161
5.629	14.9275
5.592	14.8225
5.556	14.7378
5.521	14.5647
5.486	14.1972
5.451	13.7068
5.417	13.3469
5.383	13.0859
5.35	12.77
5.317	12.5744
5.285	12.5495
5.252	12.5879
5.221	12.4082
5.189	12.049
5.158	11.6814
5.128	11.3149
5.097	11.1504
5.068	11.4223
5.038	11.9348
5.009	12.2881
4.98	12.478
4.951	12.5974
4.923	12.7168
4.895	12.9033
4.868	13.2111
4.84	13.5776
4.814	13.9936
4.787	14.3796
4.76	14.8593
4.734	15.321
4.709	15.7907
4.683	16.0825
4.658	16.4924
4.633	17.0473
4.608	17.528
4.584	17.9448
4.56	18.3764
4.536	18.7883
4.512	19.0424
4.488	19.1965
4.465	19.3161
4.442	19.4199
4.42	19.5354
4.397	19.6257
4.375	19.7102
4.353	19.7795
4.331	19.8505
4.309	19.9057
4.288	19.9831
4.267	20.0578
4.246	20.1059
4.225	20.1516
4.205	20.2055
4.184	20.2392
4.164	20.2912
4.144	20.3041
4.124	20.3256
4.105	20.3774
4.085	20.4128
4.066	20.4387
4.047	20.4584
4.028	20.4826
4.009	20.499
3.991	20.5102
3.973	20.5461
3.954	20.5715
3.936	20.6127
3.918	20.6269
3.901	20.6721
3.883	20.6677
3.866	20.6799
3.849	20.6769
3.832	20.6772
3.815	20.6918
3.798	20.6782
3.781	20.6896
3.765	20.6789
3.748	20.674
3.732	20.6679
3.716	20.6574
3.7	20.6249
3.685	20.603
3.669	20.5678
3.653	20.5383
3.638	20.5229
3.623	20.4909
3.608	20.4526
3.593	20.4155
3.578	20.383
3.563	20.3244
3.548	20.258
3.534	20.1826
3.519	20.0239
3.505	19.6447
3.491	19.7126
3.477	19.7822
3.463	19.7602
3.449	19.6284
3.435	19.4289
3.422	19.0327
3.408	19.0048
3.395	19.2441
3.382	19.2761
3.369	19.3486
3.355	19.3828
3.342	19.4528
3.33	19.4738
3.317	19.4643
3.304	19.4155
3.292	19.3518
3.279	19.2871
3.267	19.2211
3.254	19.144
3.242	19.0615
3.23	18.9809
3.218	18.8999
3.206	18.8071
3.194	18.7082
3.182	18.6225
3.171	18.5222
3.159	18.4209
3.148	18.31
3.136	18.1887
3.125	18.0739
3.114	17.9714
3.102	17.8554
3.091	17.7485
3.08	17.6206
3.069	17.5166
3.058	17.3957
3.048	17.299
3.037	17.1892
3.026	17.0659
3.016	16.9646
3.005	16.8256
2.995	16.6931
2.985	16.5817
2.974	16.4292
2.964	16.2641
2.954	16.1211
2.944	15.936
2.934	15.7587
2.924	15.5605
2.914	15.3547
2.904	15.2085
2.895	15.0817
2.885	15.0195
2.875	15.0288
2.866	15.0004
2.856	15.0297
2.847	15.0224
2.838	15.0832
2.828	15.2631
2.819	15.6347
2.81	16.0337
2.801	16.2832
2.792	16.3969
2.783	16.4936
2.774	16.5693
2.765	16.6723
2.756	16.7714
2.747	16.7998
2.739	17.0195
2.73	16.3149
2.721	16.5537
2.713	17.665
2.704	18.2202
2.696	18.6135
2.687	18.8417
2.679	18.9191
2.671	18.9167
2.663	19.5954
2.654	19.6359
2.646	19.6276
2.638	19.6164
2.63	19.5412
2.622	19.5195
2.614	19.4541
2.606	19.3857
2.599	19.3664
2.591	19.3046
2.583	19.27
2.575	19.2111
2.568	19.1828
2.56	19.0876
2.553	19.0136
2.545	18.9641
2.538	18.9155
2.53	18.8469
2.523	18.7814
2.515	18.6972
2.508	18.675
2.501	18.5449
2.494	18.4946
2.486	18.4084
2.479	18.3481
2.472	18.2978
2.465	18.1875
2.458	18.1396
2.451	18.0773
2.444	17.958
2.437	17.9292
2.43	17.8554
2.424	17.7307
2.417	17.7417
2.41	17.705
2.403	17.5656
2.397	17.507
2.39	17.4162
2.384	17.3603
2.377	17.3049
2.37	17.2734
2.364	17.1738
2.358	17.1328
2.351	17.0305
2.345	16.9592
2.338	16.8847
2.332	16.799
2.326	16.7561
2.32	16.7368
2.313	16.6103
2.307	16.5503
2.301	16.4917
2.295	16.437
2.289	16.3823
2.283	16.3378
2.277	16.2436
2.271	16.2031
2.265	16.1411
2.259	16.0791
2.253	16.0376
2.247	15.9663
2.241	15.8847
2.236	15.854
2.23	15.7929
2.224	15.7153
2.218	15.6948
2.213	15.5942
2.207	15.5849
2.201	15.5214
2.196	15.52
2.19	15.4282
2.185	15.3877
2.179	15.3359
2.174	15.3325
2.168	15.2387
2.163	15.2304
2.157	15.2148
2.152	15.08
2.147	15.0219
2.141	14.9946
2.136	14.9882
2.131	14.915
2.126	14.8969
2.12	14.8691
2.115	14.792
2.11	14.7734
2.105	14.7558
2.1	14.684
2.095	14.6255
2.09	14.6001
2.085	14.5566
2.079	14.5009
