Name: Topaz Al2SiO4(F,OH)2
Type: Mineral
Class: Silicates
Subclass: Nesosilicates (Isolated tetrahedra)
Particle Size: Coarse  (75 - 250  Micrometers)
Sample No.: topaz.1
Owner: JHU
Wavelength Range: IR
Origin: Rhondonia, Brazil via Don Hoover, USGS
Description: The sample was a 1 cm x 1 cm x 1 cm fragment of a
Measurement: Bidirectional reflectance
X Units: Wavelength (micrometers)
Y Units: Reflectance (percent)
wavelength	value
25.0442	3.3476
24.3388	2.811
23.6719	3.6606
23.0407	4.8984
22.4422	7.3008
21.8741	10.4114
21.334	7.3681
20.8199	6.4062
20.33	5.831
19.8627	5.3913
19.4163	3.7385
18.9896	4.4311
18.5812	4.2148
18.19	5.0786
17.815	2.1982
17.4551	1.3777
17.1094	1.9475
16.7772	2.4861
16.4576	5.1609
16.15	8.8611
15.8537	9.5849
15.568	9.2922
15.2925	8.6809
15.0265	7.2671
14.7697	3.8559
14.5214	1.5012
14.2814	0.3936
14.0492	0.2944
13.8244	0.3201
13.6067	0.532
13.3957	0.7173
13.1912	0.9006
12.9929	1.0459
12.8004	1.21
12.6135	1.4551
12.432	1.7214
12.2557	2.0688
12.0843	2.572
11.9176	3.4206
11.7555	4.698
11.5977	7.0566
11.444	9.1601
11.2944	9.928
11.1487	9.6858
11.0067	8.8594
10.8682	8.8352
10.7332	8.5564
10.6015	10.2751
10.473	10.5932
10.3476	10.3064
10.2251	7.9565
10.1056	6.2939
9.98873	7.6865
9.87458	8.0915
9.763	6.9333
9.65392	6.1858
9.54724	5.6147
9.44291	4.6321
9.34082	3.4292
9.24091	2.22
9.14312	1.2007
9.04739	0.5457
8.95363	0.2
8.8618	0.0784
8.77183	0.0735
8.68368	0.1353
8.59727	0.3938
8.51257	0.2749
8.42951	0.0881
8.34807	0.1104
8.26819	0.1467
8.18981	0.1951
8.11292	0.2473
8.03745	0.2974
7.96337	0.3594
7.89064	0.4387
7.81924	0.5359
7.74911	0.6316
7.68023	0.6892
7.61256	0.7495
7.54608	0.8186
7.48074	0.8911
7.41653	0.9814
7.35341	1.1133
7.29136	1.2417
7.23034	1.3479
7.17033	1.4497
7.11132	1.5464
7.05327	1.5969
6.99616	1.6602
6.93996	1.78
6.88467	1.9199
6.83024	2.0105
6.77667	2.0107
6.72393	2.0354
6.67201	2.1616
6.62089	2.3474
6.57054	2.5164
6.52095	2.5984
6.4721	2.6965
6.42398	2.8538
6.37657	3.0051
6.32986	3.1724
6.28382	3.2678
6.23845	3.4028
6.19373	3.5593
6.14965	3.7119
6.10619	3.8618
6.06334	4.1213
6.02109	4.4233
5.97942	4.6069
5.93832	4.3704
5.89778	3.9319
5.8578	3.551
5.81835	3.0886
5.77943	2.9216
5.74103	3.0483
5.70314	2.948
5.66574	2.5159
5.62883	1.9302
5.5924	1.3853
5.55644	1.0918
5.52093	1.0149
5.48588	1.0427
5.45127	1.1186
5.41709	1.1816
5.38334	1.1663
5.35	1.2146
5.31708	1.3606
5.28456	1.554
5.25243	1.9143
5.2207	2.592
5.18934	3.3486
5.15836	3.978
5.12775	4.4995
5.09749	5.0918
5.0676	5.6714
5.03805	6.1001
5.00884	6.3191
4.97998	6.1003
4.95144	5.9451
4.92322	6.9031
4.89533	8.4026
4.86775	9.5356
4.84048	10.2751
4.81351	10.7978
4.78684	11.1355
4.76047	11.3291
4.73439	11.4726
4.70859	11.5647
4.68306	11.6455
4.65782	11.6379
4.63284	11.5949
4.60814	11.687
4.58369	11.8369
4.5595	11.9912
4.53557	12.2414
4.51188	12.4785
4.48845	12.6157
4.46525	12.6889
4.44229	12.7173
4.41957	12.6855
4.39708	12.5009
4.37481	11.905
4.35277	10.2751
4.33096	7.4118
4.30935	5.9839
4.28797	8.7517
4.26679	11.0461
4.24583	12.3239
4.22506	12.9231
4.2045	13.2321
4.18414	13.3986
4.16398	13.498
4.14401	13.5669
4.12423	13.6252
4.10464	13.6909
4.08523	13.7573
4.066	13.7673
4.04696	13.6069
4.02809	13.1706
4.0094	13.519
3.99088	13.8413
3.97253	13.915
3.95435	13.9499
3.93634	13.9607
3.91848	13.917
3.90079	13.7536
3.88326	13.4963
3.86589	13.2649
3.84867	13.1823
3.8316	13.2527
3.81468	13.3679
3.79791	13.4936
3.78129	13.6228
3.76482	13.7382
3.74848	13.8232
3.73229	13.8347
3.71624	13.3176
3.70032	13.8435
3.68454	13.7993
3.6689	13.7226
3.65338	13.6467
3.638	13.603
3.62275	13.5927
3.60762	13.6057
3.59262	13.6154
3.57775	13.6357
3.56299	13.6462
3.54836	13.6701
3.53385	13.6931
3.51945	13.7021
3.50517	13.5522
3.49101	13.6677
3.47696	13.7492
3.46303	13.8068
3.4492	13.7866
3.43549	13.7016
3.42188	13.5119
3.40838	13.5622
3.39499	13.7321
3.38171	13.7558
3.36852	13.833
3.35544	13.979
3.34246	14.0332
3.32958	14.007
3.3168	13.9863
3.30411	13.9521
3.29153	13.9289
3.27903	13.904
3.26664	13.8259
3.25433	13.7492
3.24212	13.6753
3.23	13.6682
3.21797	13.6308
3.20603	13.542
3.19418	13.4629
3.18241	13.3654
3.17074	13.1909
3.15914	13.1269
3.14763	13.1101
3.13621	13.0583
3.12487	13.0385
3.11361	12.8537
3.10243	12.6281
3.09133	12.3139
3.0803	12.0561
3.06936	11.8842
3.0585	11.5725
3.04771	11.101
3.037	10.5232
3.02636	10.2219
3.0158	9.6811
3.00531	9.0212
2.99489	8.7356
2.98454	8.2202
2.97427	8.2673
2.96407	8.3037
2.95393	8.8708
2.94387	9.352
2.93387	9.6135
2.92394	9.6101
2.91408	9.239
2.90429	8.8872
2.89456	8.5796
2.88489	8.6755
2.87529	8.4736
2.86576	8.8857
2.85628	9.7568
2.84687	10.1828
2.83752	10.2439
2.82823	9.7876
2.81901	9.6394
2.80984	9.3073
2.80073	8.6919
2.79168	7.9104
2.78269	7.1584
2.77376	6.0886
2.76488	4.1335
2.75606	1.6606
2.7473	0.823
2.73859	0.6882
2.72994	1.9463
2.72134	4.7197
2.7128	6.9656
2.70431	8.4499
2.69587	9.4985
2.68748	10.1989
2.67915	10.6555
2.67087	10.924
2.66264	11.0102
2.65446	11.0036
2.64633	10.8701
2.63825	10.5967
2.63021	10.0342
2.62223	9.0681
2.6143	9.105
2.60641	8.9199
2.59857	8.8196
2.59078	9.3152
2.58304	9.6113
2.57534	8.9416
2.56768	8.1365
2.56008	7.3423
2.55251	6.341
2.54499	6.1885
2.53752	6.2334
2.53009	6.2905
2.5227	6.6994
2.51536	7.3327
2.50806	8.0603
2.5008	8.2375
2.49358	9.1797
2.4864	9.687
2.47927	10.1382
2.47218	10.1509
2.46512	10.4712
2.45811	11.0327
2.45114	11.5954
2.4442	11.9629
2.43731	12.0136
2.43045	11.875
2.42363	11.8676
2.41685	11.9509
2.41011	12.3303
2.40341	12.6135
2.39674	12.7182
2.39011	12.874
2.38352	12.9694
2.37696	12.9135
2.37044	12.997
2.36395	13.1672
2.35751	13.3281
2.35109	13.372
2.34471	13.2658
2.33836	13.3066
2.33205	13.3256
2.32578	13.3579
2.31953	13.6513
2.31332	13.8381
2.30714	13.977
2.301	14.1284
2.29489	14.4294
2.28881	14.7202
2.28276	14.8393
2.27675	14.8252
2.27076	14.6137
2.26481	14.0464
2.25889	14.0131
2.253	14.8501
2.24714	15.0127
2.24131	15.0424
2.23551	15.0258
2.22974	14.9589
2.224	14.7553
2.21829	14.3584
2.21261	14.1206
2.20696	14.1572
2.20134	14.1701
2.19574	14.3413
2.19018	14.4526
2.18464	14.3398
2.17913	14.1294
2.17365	13.9331
2.16819	13.9043
2.16277	13.7456
2.15737	13.2473
2.15199	13.0324
2.14665	13.3532
2.14133	13.5542
2.13603	14.0229
2.13077	14.5522
2.12552	14.7968
2.12031	14.8264
2.11512	14.728
2.10995	14.4907
2.10481	14.1003
2.0997	13.4004
2.09461	11.8674
2.08954	8.5266
2.0845	4.5659
2.07948	6.0962
