Name: Granite
Type: Rocks
Class: Igneous
Subclass: Felsic
Particle Size: Solid
Sample No.: Granite.H3
Owner: JHU
Origin: From Santa Rita Mountains, Arizona via Smithsonian (Cat No.
Description: A light gray, medium- to coarse-grained rock consisting of
Measurement: Directional (10 degree) hemispherical reflectance
X Units: Wavelength (micrometers)
Y Units: Reflectance (percent)
wavelength	value
14.0112	3.5447
13.7147	4.3706
13.4304	3.6208
13.1577	3.7382
12.8959	4.8202
12.6443	3.9398
12.4023	3.6736
12.1694	2.7195
11.945	3.4078
11.7289	4.0176
11.5203	4.4894
11.3191	5.1286
11.1248	5.5551
10.937	6.2875
10.7555	6.9312
10.5799	7.7459
10.4099	9.1378
10.2454	11.4792
10.0859	14.9892
9.9313	18.634
9.7814	19.746
9.636	23.0608
9.4948	24.649
9.3577	27.3487
9.2245	28.9026
9.095	25.8051
8.9691	23.2748
8.8467	25.4648
8.7275	26.4766
8.6116	23.3303
8.4986	26.3697
8.3886	25.2864
8.2814	21.7321
8.1769	16.6324
8.075	9.6262
7.9756	5.1535
7.8786	2.4347
7.784	1.4353
7.6916	0.9384
7.6014	0.7097
7.5133	0.6354
7.4272	0.6185
7.343	0.6663
7.2607	0.7172
7.1803	0.7957
7.1016	0.9379
7.0246	1.0109
6.9493	1.0498
6.8755	1.1163
6.8034	1.14
6.7327	1.2018
6.6634	1.286
6.5956	1.313
6.5292	1.3716
6.464	1.3987
6.4002	1.3982
6.3376	1.3631
6.2762	1.3558
6.216	1.3406
6.157	1.3446
6.099	1.4049
6.0421	1.4426
5.9863	1.4943
5.9315	1.5302
5.8777	1.552
5.8249	1.6172
5.773	1.6997
5.722	1.6932
5.6719	1.7093
5.6227	1.699
5.5744	1.7294
5.5268	1.8068
5.4801	1.8755
5.4341	1.934
5.3889	1.9634
5.3445	1.9802
5.3008	2.0283
5.2578	2.0803
5.2154	2.1855
5.1738	2.3006
5.1328	2.3681
5.0925	2.4984
5.0528	2.5467
5.0137	2.6215
4.9752	2.6779
4.9373	2.7618
4.9	2.8382
4.8632	3.0832
4.827	3.2735
4.7913	3.3636
4.7561	3.4971
4.7215	3.5836
4.6873	3.5262
4.6536	3.7186
4.6205	4.0575
4.5877	4.3026
4.5555	4.4116
4.5237	4.3781
4.4923	4.267
4.4614	4.4217
4.4309	4.6788
4.4008	4.9797
4.3711	5.4124
4.3418	5.894
4.3129	6.1935
4.2844	6.4139
4.2563	6.7547
4.2285	6.9574
4.2011	7.1503
4.174	7.4271
4.1473	7.6978
4.1209	7.9221
4.0949	8.2371
4.0692	8.4555
4.0438	8.5073
4.0187	8.4054
3.994	8.3363
3.9695	8.4424
3.9453	8.8045
3.9214	9.0659
3.8979	9.1228
3.8746	9.0916
3.8515	9.0904
3.8288	9.314
3.8063	9.4551
3.7841	9.5249
3.7621	9.4566
3.7404	9.3979
3.7189	9.4535
3.6977	9.5833
3.6767	9.7532
3.656	9.7711
3.6355	9.7713
3.6152	9.6855
3.5951	9.5602
3.5753	9.4792
3.5557	9.3454
3.5363	9.1382
3.5171	8.831
3.4981	8.4613
3.4793	8.2671
3.4607	8.1953
3.4423	7.9104
3.4241	7.5166
3.4061	7.2464
3.3883	7.0355
3.3707	6.7849
3.3533	6.6122
3.336	6.4064
3.3189	6.1493
3.302	5.8776
3.2853	5.6421
3.2687	5.3798
3.2523	5.1733
3.2361	4.9114
3.22	4.7158
3.204	4.5464
3.1883	4.3525
3.1727	4.1787
3.1572	4.0057
3.1419	3.9082
3.1268	3.7746
3.1117	3.6541
3.0969	3.5821
3.0821	3.5444
3.0675	3.4645
3.0531	3.4387
3.0388	3.4216
3.0246	3.3392
3.0105	3.3368
2.9966	3.3047
2.9828	3.2482
2.9692	3.225
2.9556	3.2217
2.9422	3.2486
2.9289	3.2055
2.9157	3.2083
2.9027	3.2407
2.8897	3.3251
2.8769	3.3636
2.8642	3.4024
2.8516	3.4472
2.8391	3.528
2.8267	3.6204
2.8144	3.7353
2.8022	3.7995
2.7902	3.9192
2.7782	3.9771
2.7664	4.1229
2.7546	4.2496
2.7429	4.7168
2.7314	5.4719
2.7199	6.566
2.7085	7.8276
2.6973	9.6178
2.6861	11.1007
2.675	11.7998
2.664	12.3473
2.6531	12.6914
2.6423	12.94
2.6315	13.1979
2.6209	13.3333
2.6103	13.4667
2.5999	13.5766
2.5895	13.5773
2.5792	13.6931
2.569	13.7031
2.5588	13.8417
2.5487	13.758
2.5388	13.8234
2.5289	13.9111
2.519	13.8935
2.5093	14.0817
2.4996	14.0939
2.49	14.2158
2.4805	14.3241
2.471	14.3812
2.4616	14.4698
2.4523	14.5293
2.4431	14.6732
2.4339	14.8485
2.4248	14.8429
2.4157	15.0205
2.4068	15.2062
2.3979	15.359
2.389	15.5034
2.3802	15.4565
2.3715	15.4331
2.3629	15.4678
2.3543	15.5545
2.3458	15.5714
2.3373	15.7687
2.3289	15.942
2.3206	16.2316
2.3123	16.2675
2.3041	16.5197
2.2959	16.668
2.2878	16.7078
2.2798	16.796
2.2718	16.7945
2.2638	16.8951
2.2559	16.698
2.2481	16.7763
2.2403	16.7416
2.2326	16.6256
2.225	16.5543
2.2173	16.3952
2.2098	16.1294
2.2023	16.2199
2.1948	16.4608
2.1874	16.7794
2.18	17.0031
2.1727	17.1473
2.1655	17.257
2.1583	17.3899
2.1511	17.481
2.144	17.5401
2.1369	17.5275
2.1299	17.5682
2.1229	17.5026
2.116	17.5012
2.1091	17.519
2.1023	17.5699
2.0955	17.569
2.0887	17.5429
2.082	17.5643
2.06	17.5795
2.028	17.4369
1.996	17.4037
1.964	17.0892
1.932	17.0799
1.9	16.9786
1.868	17.8822
1.836	18.1866
1.804	18.1401
1.772	18.3464
1.74	18.3653
1.708	18.4927
1.676	18.5387
1.644	18.599
1.612	18.5662
1.58	18.6616
1.548	18.7773
1.516	18.7724
1.484	18.803
1.452	18.9229
1.42	18.7957
1.388	19.0353
1.356	19.3315
1.324	19.3755
1.292	19.6022
1.26	19.7952
1.228	19.7664
1.196	19.9306
1.164	20.0731
1.132	20.3752
1.1	20.3749
1.068	20.6199
1.036	20.7844
1.004	21.2881
0.972	21.4981
0.94	21.7452
0.908	21.9611
0.876	22.2792
0.844	22.6075
0.812	22.9766
0.795	22.9623
0.787	23.1196
0.779	22.844
0.771	22.7747
0.763	22.751
0.755	22.865
0.747	22.6034
0.739	22.8945
0.731	22.7206
0.723	22.6727
0.715	22.7095
0.707	22.3923
0.699	22.684
0.691	22.5703
0.683	22.5569
0.675	22.3873
0.667	22.2686
0.659	22.2608
0.651	22.1713
0.643	22.086
0.635	22.2227
0.627	21.9269
0.619	22.0578
0.611	22.1552
0.603	22.0782
0.595	21.9463
0.587	21.995
0.579	21.8306
0.571	21.6264
0.563	21.3954
0.555	21.2854
0.547	21.2623
0.539	20.976
0.531	21.0211
0.523	20.8225
0.515	20.9533
0.507	20.5114
0.499	20.5545
0.491	20.268
0.483	20.0993
0.475	20.0993
0.467	19.7703
0.459	19.1196
0.451	19.4277
0.443	18.9642
0.435	18.5258
0.427	18.4901
0.419	17.6833
0.411	17.3344
0.403	17.1086
