Name: Kaolinite Al2Si2O5(OH)4
Type: Mineral
Class: Silicates
Subclass: Phyllosilicates (Chain Silicates); (Serpentine/Kaoline Group)
Particle Size: Fine  (Less than 2 micrometers)
Sample No.: kaolinite.2
Owner: JHU
Wavelength Range: IR
Origin: Warren County, Georgia, via Hunt and Salisbury Collection
Description: Cream-colored, earthy clay. Completely disordered
Measurement: Transmission
X Units: Wavelength (micrometers)
Y Units: Transmittance (percent)
wavelength	value
25.044	80.7264
24.339	60.5858
23.672	50.2889
23.041	39.1112
22.442	61.1346
21.874	53.8475
21.334	20.5234
20.82	31.705
20.33	65.5233
19.863	65.4666
19.416	57.1327
18.99	30.5976
18.581	11.083
18.19	13.2548
17.815	24.9843
17.455	40.7147
17.109	51.076
16.777	57.0711
16.458	61.4412
16.15	68.3475
15.854	70.407
15.568	68.2703
15.292	66.9862
15.027	64.8475
14.77	59.6883
14.521	51.0663
14.281	48.9149
14.049	68.1766
13.824	79.3636
13.607	79.7054
13.396	72.6722
13.191	70.1365
12.993	76.9119
12.8	76.6512
12.614	74.4358
12.432	80.617
12.256	88.3377
12.084	90.4885
11.918	91.0374
11.755	90.615
11.598	89.2327
11.444	86.3694
11.294	81.012
11.149	68.3206
11.007	36.8437
10.868	31.4521
10.733	44.6488
10.602	47.4906
10.473	69.5745
10.348	76.3265
10.225	72.8792
10.106	55.2167
9.989	20.2099
9.875	5.479
9.763	9.5415
9.654	2.9492
9.547	13.4809
9.443	30.7582
9.341	36.5731
9.241	29.7704
9.143	20.0253
9.047	20.3847
8.954	25.6015
8.862	54.5155
8.772	69.6863
8.684	76.9715
8.597	81.2737
8.513	84.3289
8.43	86.614
8.348	88.3877
8.268	89.8799
8.19	91.2383
8.113	92.1062
8.037	92.8857
7.963	93.4705
7.891	93.9814
7.819	94.375
7.749	94.7239
7.68	94.9675
7.613	95.1794
7.546	95.5293
7.481	95.8132
7.417	95.988
7.353	96.1853
7.291	96.2644
7.23	96.3027
7.17	96.0906
7.111	96.3035
7.053	96.6716
6.996	96.7129
6.94	96.7151
6.885	96.8447
6.83	96.9622
6.777	97.0986
6.724	97.3271
6.672	97.302
6.621	97.3513
6.571	97.365
6.521	97.4346
6.472	97.4402
6.424	97.4939
6.377	97.5574
6.33	97.4199
6.284	97.3066
6.238	97.0149
6.194	96.498
6.15	96.1377
6.106	96.179
6.063	96.1799
6.021	96.1033
5.979	96.0225
5.938	96.7656
5.898	97.281
5.858	97.5947
5.818	97.7322
5.779	97.8845
5.741	98.1257
5.703	98.2595
5.666	98.3926
5.629	98.5088
5.592	98.5837
5.556	98.6121
5.521	98.3445
5.486	98.0478
5.451	98.3122
5.417	98.4783
5.383	98.6106
5.35	98.6807
5.317	98.8611
5.285	98.8125
5.252	98.7207
5.221	98.6601
5.189	98.615
5.158	98.6611
5.128	98.7392
5.097	98.9961
5.068	99.2305
5.038	99.3865
5.009	99.5549
4.98	99.779
4.951	99.8591
4.923	99.863
4.895	99.9182
4.868	100.036
4.84	100.12
4.814	100.099
4.787	100.164
4.76	100.213
4.734	100.217
4.709	100.222
4.683	100.201
4.658	100.21
4.633	100.322
4.608	100.344
4.584	100.439
4.56	100.496
4.536	100.508
4.512	100.465
4.488	100.543
4.465	100.514
4.442	100.534
4.42	100.548
4.397	100.538
4.375	100.578
4.353	100.534
4.331	100.567
4.309	100.408
4.288	100.213
4.267	100.25
4.246	100.22
4.225	100.219
4.205	100.533
4.184	100.576
4.164	100.584
4.144	100.614
4.124	100.59
4.105	100.587
4.085	100.586
4.066	100.565
4.047	100.609
4.028	100.594
4.009	100.635
3.991	100.523
3.973	100.531
3.954	100.667
3.936	100.672
3.918	100.726
3.901	100.713
3.883	100.617
3.866	100.659
3.849	100.713
3.832	100.702
3.815	100.637
3.798	100.643
3.781	100.73
3.765	100.637
3.748	100.646
3.732	100.586
3.716	100.668
3.7	100.522
3.685	100.619
3.669	100.483
3.653	100.535
3.638	100.546
3.623	100.496
3.608	100.449
3.593	100.446
3.578	100.425
3.563	100.385
3.548	100.369
3.534	100.358
3.519	100.483
3.505	100.646
3.491	100.449
3.477	100.295
3.463	100.274
3.449	100.403
3.435	100.464
3.422	100.677
3.408	100.434
3.395	100.178
3.382	100.022
3.369	99.8733
3.355	99.8049
3.342	99.717
3.33	99.6897
3.317	99.5178
3.304	99.5784
3.292	99.449
3.279	99.4587
3.267	99.3425
3.254	99.1472
3.242	99.1482
3.23	99.032
3.218	98.9001
3.206	98.7966
3.194	98.5945
3.182	98.5876
3.171	98.5144
3.159	98.4021
3.148	98.1941
3.136	98.197
3.125	98.0466
3.114	98.0544
3.102	97.9607
3.091	97.9685
3.08	97.9431
3.069	97.9665
3.058	97.7615
3.048	97.8279
3.037	97.5974
3.026	97.4792
3.016	97.2234
3.005	97.0505
2.995	96.8962
2.985	96.8083
2.974	96.5525
2.964	96.2087
2.954	96.0994
2.944	95.8904
2.934	95.6912
2.924	95.3181
2.914	94.4431
2.904	94.6834
2.895	94.8748
2.885	94.7732
2.875	94.6951
2.866	94.8123
2.856	94.8611
2.847	94.7693
2.838	94.572
2.828	94.3162
2.819	93.7419
2.81	93.2478
2.801	92.1218
2.792	90.7849
2.783	88.6804
2.774	84.1092
2.765	58.5477
2.756	64.2225
2.747	70.2889
2.739	56.7938
2.73	59.6522
2.721	58.5545
2.713	39.6171
2.704	23.0322
2.696	61.2313
2.687	84.4656
2.679	92.2146
2.671	95.2585
2.663	96.7771
2.654	97.6404
2.646	98.2234
2.638	98.8142
2.63	98.9529
2.622	99.3005
2.614	99.5701
2.606	99.3747
2.599	99.699
2.591	99.9548
2.583	100.062
2.575	99.8279
2.568	99.9158
2.56	100.103
2.553	100.127
2.545	100.215
2.538	100.394
2.53	100.219
2.523	100.168
2.515	100.293
2.508	100.238
2.501	100.486
2.494	100.461
2.486	100.543
2.479	100.564
2.472	100.679
2.465	100.773
2.458	100.844
2.451	100.877
2.444	100.746
2.437	101.025
2.43	100.965
2.424	100.963
2.417	100.939
2.41	101.121
2.403	101.172
2.397	101.158
2.39	100.855
2.384	101.306
2.377	101.269
2.37	101.383
2.364	101.312
2.358	101.175
2.351	101.422
2.345	101.064
2.338	101.367
2.332	101.494
2.326	101.222
2.32	101.566
2.313	101.65
2.307	101.72
2.301	101.478
2.295	101.806
2.289	101.658
2.283	101.791
2.277	101.885
2.271	101.965
2.265	102.078
2.259	101.742
2.253	101.781
2.247	101.726
2.241	101.984
2.236	102.183
2.23	102.019
2.224	101.859
2.218	101.89
2.213	101.648
2.207	101.019
2.201	102.277
2.196	102.094
2.19	101.945
2.185	102.156
2.179	101.734
2.174	102.281
2.168	102.23
2.163	102.375
2.157	101.625
2.152	102.789
2.147	102.332
2.141	102.519
2.136	102.109
2.131	102.679
2.126	102.531
2.12	102.554
2.115	103.25
2.11	101.554
2.105	102.613
2.1	103.148
2.095	102.882
2.09	102.867
2.085	103.41
2.079	102.722
