Name: Olivine (Fo41) (Fe+2,Mg)2SiO4
Type: Mineral
Class: Silicates
Subclass: Nesosilicates (Isolated tetrahedra); (Olivine Group)
Particle Size: 0-60 micrometers.  (Packed powder simulates coarse.)
Sample No.: olivine.4
Owner: JHU
Wavelength Range: IR
Origin: Kiglapait Intrusion, Labrador via Trude King #KI4143
Description: Initially, the specimen was contaminated with pyroxene,
Measurement: Bidirectional reflectance
X Units: Wavelength (micrometers)
Y Units: Reflectance (percent)
wavelength	value
25.0442	4.6462
24.3388	3.7212
23.6719	3.3967
23.0407	3.1672
22.4422	3.2324
21.8741	3.2783
21.334	3.8403
20.8199	4.5449
20.33	4.5044
19.8627	4.8428
19.4163	5.6177
18.9896	6.1775
18.5812	5.8398
18.19	4.4509
17.815	3.0945
17.4551	2.6584
17.1094	2.842
16.7772	3.0815
16.4576	3.1977
16.15	2.9299
15.8537	2.2559
15.568	2.0024
15.2925	2.1182
15.0265	2.2839
14.7697	2.4121
14.5214	2.5181
14.2814	2.5981
14.0492	2.697
13.8244	2.7146
13.6067	2.7629
13.3957	2.73
13.1912	2.7329
12.9929	2.7624
12.8004	2.8152
12.6135	2.8935
12.432	3.0154
12.2557	3.1897
12.0843	3.6099
11.9176	3.2756
11.7555	3.8091
11.5977	4.7685
11.444	5.9953
11.2944	6.7568
11.1487	7.1694
11.0067	7.5998
10.8682	7.8738
10.7332	6.7947
10.6015	4.6638
10.473	5.7947
10.3476	6.1772
10.2251	5.3293
10.1056	4.8469
9.98873	4.1855
9.87458	3.8325
9.763	3.8408
9.65392	4.0276
9.54724	3.7913
9.44291	2.9639
9.34082	2.1099
9.24091	1.5701
9.14312	1.4963
9.04739	1.5947
8.95363	1.7046
8.8618	1.832
8.77183	1.9246
8.68368	2.0024
8.59727	2.074
8.51257	2.1431
8.42951	2.2266
8.34807	2.3069
8.26819	2.3999
8.18981	2.4856
8.11292	2.5466
8.03745	2.5727
7.96337	2.5835
7.89064	2.5991
7.81924	2.5994
7.74911	2.5884
7.68023	2.6008
7.61256	2.6421
7.54608	2.6982
7.48074	2.7524
7.41653	2.7986
7.35341	2.8411
7.29136	2.866
7.23034	2.8977
7.17033	2.9184
7.11132	2.9499
7.05327	2.9853
6.99616	2.9939
6.93996	3.0249
6.88467	3.0496
6.83024	3.0718
6.77667	3.0832
6.72393	3.0754
6.67201	3.0613
6.62089	3.0588
6.57054	3.0535
6.52095	3.0408
6.4721	3.0317
6.42398	3.03
6.37657	3.0159
6.32986	2.999
6.28382	2.978
6.23845	2.948
6.19373	2.9072
6.14965	2.8289
6.10619	2.7161
6.06334	2.6201
6.02109	2.6162
5.97942	2.6384
5.93832	2.6404
5.89778	2.6536
5.8578	2.6633
5.81835	2.6685
5.77943	2.6196
5.74103	2.5537
5.70314	2.5144
5.66574	2.5303
5.62883	2.5767
5.5924	2.6081
5.55644	2.6221
5.52093	2.6409
5.48588	2.6682
5.45127	2.6963
5.41709	2.7209
5.38334	2.7341
5.35	2.7544
5.31708	2.7732
5.28456	2.7983
5.25243	2.8428
5.2207	2.8662
5.18934	2.8931
5.15836	2.9104
5.12775	2.9167
5.09749	2.9329
5.0676	2.9519
5.03805	3.0002
5.00884	3.0503
4.97998	3.0972
4.95144	3.144
4.92322	3.1809
4.89533	3.2151
4.86775	3.2378
4.84048	3.2659
4.81351	3.2854
4.78684	3.3069
4.76047	3.3296
4.73439	3.3569
4.70859	3.3782
4.68306	3.4014
4.65782	3.4275
4.63284	3.4578
4.60814	3.4858
4.58369	3.5154
4.5595	3.5476
4.53557	3.5684
4.51188	3.5996
4.48845	3.6287
4.46525	3.6616
4.44229	3.6943
4.41957	3.7241
4.39708	3.7642
4.37481	3.7961
4.35277	3.8254
4.33096	3.8596
4.30935	3.8977
4.28797	3.9302
4.26679	3.9582
4.24583	3.991
4.22506	4.0244
4.2045	4.0566
4.18414	4.0847
4.16398	4.1138
4.14401	4.1479
4.12423	4.1814
4.10464	4.2097
4.08523	4.2449
4.066	4.2742
4.04696	4.3086
4.02809	4.3476
4.0094	4.3909
3.99088	4.4138
3.97253	4.449
3.95435	4.4866
3.93634	4.5276
3.91848	4.5703
3.90079	4.5994
3.88326	4.6277
3.86589	4.6584
3.84867	4.6836
3.8316	4.7234
3.81468	4.7566
3.79791	4.7881
3.78129	4.8227
3.76482	4.8577
3.74848	4.8862
3.73229	4.9167
3.71624	4.9363
3.70032	4.967
3.68454	4.9902
3.6689	5.019
3.65338	5.0491
3.638	5.0796
3.62275	5.1042
3.60762	5.1269
3.59262	5.1526
3.57775	5.1653
3.56299	5.1885
3.54836	5.2009
3.53385	5.2224
3.51945	5.2261
3.50517	5.2129
3.49101	5.2475
3.47696	5.2663
3.46303	5.2761
3.4492	5.2756
3.43549	5.2749
3.42188	5.2554
3.40838	5.2812
3.39499	5.3166
3.38171	5.3274
3.36852	5.3503
3.35544	5.3765
3.34246	5.3933
3.32958	5.4043
3.3168	5.4053
3.30411	5.4075
3.29153	5.4077
3.27903	5.3962
3.26664	5.3935
3.25433	5.3826
3.24212	5.373
3.23	5.3537
3.21797	5.3406
3.20603	5.3279
3.19418	5.3166
3.18241	5.2834
3.17074	5.279
3.15914	5.2541
3.14763	5.2236
3.13621	5.2126
3.12487	5.1997
3.11361	5.1938
3.10243	5.1826
3.09133	5.1697
3.0803	5.1582
3.06936	5.1487
3.0585	5.1416
3.04771	5.1384
3.037	5.1289
3.02636	5.1152
3.0158	5.1015
3.00531	5.0828
2.99489	5.0835
2.98454	5.0652
2.97427	5.052
2.96407	5.0434
2.95393	5.0344
2.94387	5.0259
2.93387	5.0264
2.92394	5.0283
2.91408	5.0315
2.90429	5.0344
2.89456	5.0447
2.88489	5.0366
2.87529	5.0471
2.86576	5.0495
2.85628	5.0478
2.84687	5.039
2.83752	5.0078
2.82823	4.9863
2.81901	4.9529
2.80984	4.9289
2.80073	4.9116
2.79168	4.9036
2.78269	4.9133
2.77376	4.8918
2.76488	4.8843
2.75606	4.8852
2.7473	4.8945
2.73859	4.9338
2.72994	4.9641
2.72134	5.1079
2.7128	5.3494
2.70431	5.8508
2.69587	6.154
2.68748	6.2671
2.67915	6.3254
2.67087	6.3699
2.66264	6.3767
2.65446	6.3769
2.64633	6.3611
2.63825	6.3745
2.63021	6.3745
2.62223	6.376
2.6143	6.3584
2.60641	6.3774
2.59857	6.3647
2.59078	6.3491
2.58304	6.3479
2.57534	6.3384
2.56768	6.3242
2.56008	6.3108
2.55251	6.2947
2.54499	6.3013
2.53752	6.3056
2.53009	6.2961
2.5227	6.2785
2.51536	6.2554
2.50806	6.2617
2.5008	6.2439
2.49358	6.241
2.4864	6.2402
2.47927	6.2502
2.47218	6.2351
2.46512	6.2375
2.45811	6.2319
2.45114	6.2175
2.4442	6.2173
2.43731	6.2099
2.43045	6.2146
2.42363	6.1863
2.41685	6.188
2.41011	6.2097
2.40341	6.1977
2.39674	6.1697
2.39011	6.1667
2.38352	6.1575
2.37696	6.1528
2.37044	6.1514
2.36395	6.1531
2.35751	6.156
2.35109	6.1435
2.34471	6.1306
2.33836	6.1101
2.33205	6.1008
2.32578	6.1057
2.31953	6.1225
2.31332	6.1291
2.30714	6.1186
2.301	6.1118
2.29489	6.1184
2.28881	6.1221
2.28276	6.0964
2.27675	6.1411
2.27076	6.1252
2.26481	6.1499
2.25889	6.126
2.253	6.1347
2.24714	6.1438
2.24131	6.1526
2.23551	6.1472
2.22974	6.1462
2.224	6.1294
2.21829	6.136
2.21261	6.1467
2.20696	6.1328
2.20134	6.126
2.19574	6.1296
2.19018	6.1409
2.18464	6.1531
2.17913	6.1387
2.17365	6.1308
2.16819	6.1377
2.16277	6.1557
2.15737	6.1667
2.15199	6.1482
2.14665	6.1575
2.14133	6.1618
2.13603	6.1582
2.13077	6.1638
2.12552	6.1594
2.12031	6.1824
2.11512	6.1719
2.10995	6.1816
2.10481	6.1987
2.0997	6.175
2.09461	6.2207
2.08954	6.2095
2.0845	6.2124
2.07948	6.2256
