Name: Gypsum (alabaster) CaSO4.2H20
Type: Mineral
Class: Sulfates
Particle Size: Coarse  (74-250 Micrometers)
Sample No.: gypsum.1
Owner: JHU
Wavelength Range: IR
Origin: Pomaia, Italy via Hunt and Salisbury Collection #26B
Description: The sample was white, translucent, and appeared pure,
Measurement: Bidirectional reflectance
X Units: Wavelength (micrometers)
Y Units: Reflectance (percent)
wavelength	value
25.0442	1.4885
24.3388	1.6326
23.6719	1.8696
23.0407	1.8235
22.4422	1.7092
21.8741	1.7991
21.334	1.9321
20.8199	1.9053
20.33	1.9443
19.8627	1.8794
19.4163	1.8967
18.9896	1.885
18.5812	1.8657
18.19	1.8425
17.815	1.8591
17.4551	1.925
17.1094	2.0603
16.7772	2.3804
16.4576	1.8374
16.15	1.4929
15.8537	1.3901
15.568	1.4924
15.2925	1.6077
15.0265	2.168
14.7697	2.4026
14.5214	1.7258
14.2814	1.4692
14.0492	1.405
13.8244	1.5598
13.6067	1.6641
13.3957	1.7222
13.1912	1.7866
12.9929	1.8105
12.8004	1.8423
12.6135	1.8496
12.432	1.8769
12.2557	1.9382
12.0843	1.9355
11.9176	1.9321
11.7555	2.0037
11.5977	2.0332
11.444	2.094
11.2944	2.1518
11.1487	2.1501
11.0067	2.1804
10.8682	2.1848
10.7332	2.1643
10.6015	2.1565
10.473	2.1226
10.3476	2.0803
10.2251	2.0193
10.1056	1.9338
9.98873	1.791
9.87458	1.6921
9.763	1.9019
9.65392	1.9326
9.54724	1.8887
9.44291	1.9055
9.34082	1.968
9.24091	2.0464
9.14312	2.2454
9.04739	2.7195
8.95363	3.3931
8.8618	3.8069
8.77183	3.8845
8.68368	4.5986
8.59727	5.5857
8.51257	5.647
8.42951	5.5627
8.34807	5.6362
8.26819	5.2632
8.18981	4.4934
8.11292	3.8242
8.03745	3.012
7.96337	1.9236
7.89064	0.9565
7.81924	0.4783
7.74911	0.4404
7.68023	0.5181
7.61256	0.6389
7.54608	0.7707
7.48074	0.9241
7.41653	1.1169
7.35341	1.3086
7.29136	1.5415
7.23034	1.801
7.17033	2.0188
7.11132	2.217
7.05327	2.436
6.99616	2.6648
6.93996	2.8784
6.88467	3.0351
6.83024	3.1882
6.77667	3.3411
6.72393	3.4282
6.67201	3.4265
6.62089	3.3691
6.57054	3.1623
6.52095	2.886
6.4721	2.6931
6.42398	2.5415
6.37657	2.4993
6.32986	2.2502
6.28382	1.9111
6.23845	1.4748
6.19373	1.1191
6.14965	1.1482
6.10619	1.2544
6.06334	1.7075
6.02109	2.126
5.97942	2.4597
5.93832	2.7041
5.89778	3.0693
5.8578	3.5918
5.81835	3.8948
5.77943	4.1531
5.74103	4.3701
5.70314	4.665
5.66574	4.9072
5.62883	5.1267
5.5924	5.2615
5.55644	5.406
5.52093	5.6062
5.48588	5.7705
5.45127	5.9453
5.41709	6.1584
5.38334	6.3701
5.35	6.5151
5.31708	6.6228
5.28456	6.6784
5.25243	6.7434
5.2207	6.7478
5.18934	6.6963
5.15836	6.6076
5.12775	6.5093
5.09749	6.4243
5.0676	6.3193
5.03805	6.218
5.00884	6.0847
4.97998	5.6933
4.95144	5.6692
4.92322	5.6267
4.89533	5.5095
4.86775	5.3572
4.84048	5.105
4.81351	4.613
4.78684	3.8074
4.76047	3.4206
4.73439	3.0525
4.70859	2.2856
4.68306	1.7629
4.65782	2.1172
4.63284	2.1172
4.60814	2.1418
4.58369	2.5442
4.5595	2.8293
4.53557	2.7873
4.51188	2.5161
4.48845	2.2424
4.46525	2.2986
4.44229	2.4163
4.41957	2.6921
4.39708	3.0044
4.37481	3.2527
4.35277	3.3455
4.33096	3.4678
4.30935	3.6423
4.28797	3.8376
4.26679	4.1284
4.24583	4.5461
4.22506	5.1655
4.2045	5.8386
4.18414	6.3952
4.16398	6.8139
4.14401	7.1208
4.12423	7.4065
4.10464	7.6914
4.08523	7.9638
4.066	8.2124
4.04696	8.4533
4.02809	8.6601
4.0094	8.8159
3.99088	8.9182
3.97253	8.8718
3.95435	9.1841
3.93634	9.3967
3.91848	9.5261
3.90079	9.6094
3.88326	9.5788
3.86589	9.5224
3.84867	9.7475
3.8316	9.7932
3.81468	9.7629
3.79791	9.6833
3.78129	9.7029
3.76482	9.7678
3.74848	9.7688
3.73229	9.7326
3.71624	9.6953
3.70032	9.6379
3.68454	9.5356
3.6689	9.4419
3.65338	9.3406
3.638	9.2405
3.62275	9.1262
3.60762	9.0002
3.59262	8.8608
3.57775	8.7224
3.56299	8.5866
3.54836	8.4631
3.53385	8.3386
3.51945	8.2436
3.50517	8.112
3.49101	8.0019
3.47696	7.8728
3.46303	7.7563
3.4492	7.594
3.43549	7.4211
3.42188	7.229
3.40838	7.0513
3.39499	6.9043
3.38171	6.72
3.36852	6.5444
3.35544	6.3733
3.34246	6.1997
3.32958	6.0168
3.3168	5.8367
3.30411	5.6304
3.29153	5.435
3.27903	5.2422
3.26664	5.0688
3.25433	4.8926
3.24212	4.7261
3.23	4.5688
3.21797	4.4143
3.20603	4.2644
3.19418	4.1184
3.18241	3.9563
3.17074	3.7839
3.15914	3.6387
3.14763	3.4824
3.13621	3.2947
3.12487	3.0879
3.11361	2.9343
3.10243	2.9333
3.09133	2.9202
3.0803	2.8845
3.06936	2.884
3.0585	2.8408
3.04771	2.7883
3.037	2.7307
3.02636	2.6626
3.0158	2.583
3.00531	2.511
2.99489	2.4517
2.98454	2.396
2.97427	2.3403
2.96407	2.2666
2.95393	2.2358
2.94387	2.2073
2.93387	2.1833
2.92394	2.166
2.91408	2.085
2.90429	1.9839
2.89456	1.9045
2.88489	1.863
2.87529	1.7996
2.86576	1.7507
2.85628	1.7002
2.84687	1.6802
2.83752	1.5925
2.82823	1.4609
2.81901	1.2764
2.80984	1.1562
2.80073	1.1809
2.79168	1.2957
2.78269	1.1848
2.77376	1.0029
2.76488	0.9495
2.75606	1.0515
2.7473	1.2961
2.73859	1.6868
2.72994	2.1789
2.72134	2.6907
2.7128	3.2368
2.70431	3.7429
2.69587	4.2041
2.68748	4.6387
2.67915	5.0312
2.67087	5.3674
2.66264	5.6802
2.65446	5.9451
2.64633	6.1406
2.63825	6.3086
2.63021	6.4685
2.62223	6.6174
2.6143	6.7402
2.60641	6.8271
2.59857	6.8945
2.59078	6.9311
2.58304	6.9668
2.57534	6.9668
2.56768	6.9695
2.56008	6.9714
2.55251	6.925
2.54499	6.9265
2.53752	6.917
2.53009	6.8479
2.5227	6.7859
2.51536	6.6838
2.50806	6.5676
2.5008	6.4936
2.49358	6.4223
2.4864	6.3752
2.47927	6.3711
2.47218	6.437
2.46512	6.5168
2.45811	6.5974
2.45114	6.7556
2.4442	6.8857
2.43731	7.0425
2.43045	7.206
2.42363	7.3921
2.41685	7.5898
2.41011	7.8357
2.40341	8.1374
2.39674	8.469
2.39011	8.8066
2.38352	9.1428
2.37696	9.4573
2.37044	9.7082
2.36395	9.8767
2.35751	10.0852
2.35109	10.2715
2.34471	10.3691
2.33836	10.4873
2.33205	10.56
2.32578	10.6076
2.31953	10.6479
2.31332	10.6567
2.30714	10.6814
2.301	10.6418
2.29489	10.6323
2.28881	10.5576
2.28276	10.4778
2.27675	10.3738
2.27076	10.2585
2.26481	10.2297
2.25889	10.372
2.253	10.3637
2.24714	10.3794
2.24131	10.383
2.23551	10.2947
2.22974	10.188
2.224	10.0166
2.21829	9.9128
2.21261	9.9787
2.20696	10.0708
2.20134	10.1543
2.19574	10.2397
2.19018	10.2627
2.18464	10.3501
2.17913	10.3083
2.17365	10.372
2.16819	10.4548
2.16277	10.5207
2.15737	10.6001
2.15199	10.6059
2.14665	10.6643
2.14133	10.7053
2.13603	10.7768
2.13077	10.8051
2.12552	10.8454
2.12031	10.9873
2.11512	11.0683
2.10995	11.0967
2.10481	11.1523
2.0997	11.145
2.09461	11.2934
2.08954	11.3676
2.0845	11.4126
2.07948	11.4177
