Name: Cordierite Mg2Al4Si5O18
Type: Mineral
Class: Silicates
Subclass: Cyclosilicates (Ring Silicates)
Particle Size: Fine  (less than 2 Micrometers)
Sample No.: cordier.2
Owner: JHU
Wavelength Range: IR
Origin: Sample from Orijarvi, Finland via the Smithsonian  (sample
Description: The sample consists of three pieces, each about 2 cm x 4
Measurement: Transmission
X Units: Wavelength (micrometers)
Y Units: Transmittance (percent)
wavelength	value
25.044	54.3436
24.339	59.7186
23.672	45.1171
23.041	45.4374
22.442	38.0487
21.874	39.4999
21.334	44.0253
20.82	45.66
20.33	43.1796
19.863	63.5662
19.416	68.5399
18.99	69.7381
18.581	72.0477
18.19	73.2889
17.815	68.2196
17.455	65.5389
17.109	57.5252
16.777	67.3475
16.458	66.7772
16.15	61.8241
15.854	69.9178
15.568	73.782
15.292	73.2391
15.027	71.8592
14.77	66.2821
14.521	71.1902
14.281	71.1522
14.049	72.4256
13.824	72.2576
13.607	68.9217
13.396	59.1253
13.191	52.8187
12.993	34.1874
12.8	47.2303
12.614	66.1209
12.432	71.6214
12.256	75.4866
12.084	76.4988
11.918	77.1312
11.755	75.9061
11.598	73.0721
11.444	68.3475
11.294	61.2562
11.149	47.369
11.007	30.7582
10.868	36.0575
10.733	37.6366
10.602	18.5332
10.473	12.1709
10.348	12.0009
10.225	16.604
10.106	21.414
9.989	29.8168
9.875	32.9169
9.763	30.8969
9.654	35.7079
9.547	38.8285
9.443	39.6503
9.341	38.4716
9.241	35.8969
9.143	33.1855
9.047	34.1249
8.954	34.227
8.862	31.3573
8.772	26.8989
8.684	27.7905
8.597	23.0214
8.513	17.8232
8.43	22.5576
8.348	35.9132
8.268	52.6815
8.19	65.5675
8.113	74.3377
8.037	79.4217
7.963	82.8269
7.891	85.126
7.819	86.7315
7.749	88.0271
7.68	88.9885
7.613	89.6907
7.546	90.3936
7.481	90.7852
7.417	91.1882
7.353	91.457
7.291	91.4551
7.23	91.3174
7.17	91.082
7.111	91.0588
7.053	91.5733
6.996	91.7317
6.94	91.8787
6.885	92.0369
6.83	92.2927
6.777	92.8926
6.724	93.4414
6.672	93.8318
6.621	93.9766
6.571	94.1482
6.521	94.1931
6.472	93.9377
6.424	93.6482
6.377	93.0496
6.33	92.5645
6.284	91.7966
6.238	90.2576
6.194	88.7761
6.15	87.7996
6.106	86.9607
6.063	88.7654
6.021	90.3584
5.979	91.4863
5.938	93.1013
5.898	94.1279
5.858	94.793
5.818	95.2686
5.779	95.6221
5.741	96.0459
5.703	96.4092
5.666	96.5518
5.629	96.658
5.592	96.7761
5.556	96.8828
5.521	96.9753
5.486	97.0154
5.451	97.0535
5.417	97.0564
5.383	96.9597
5.35	96.9343
5.317	97.0205
5.285	97.1269
5.252	97.1838
5.221	97.2734
5.189	97.416
5.158	97.5664
5.128	97.6404
5.097	97.7187
5.068	97.7507
5.038	97.8039
5.009	97.8679
4.98	97.8494
4.951	98.0588
4.923	98.0217
4.895	98.113
4.868	98.1316
4.84	98.1921
4.814	98.2205
4.787	98.2742
4.76	98.3181
4.734	98.3547
4.709	98.3708
4.683	98.4148
4.658	98.4377
4.633	98.4524
4.608	98.4871
4.584	98.6228
4.56	98.5823
4.536	98.6081
4.512	98.5749
4.488	98.6243
4.465	98.5984
4.442	98.6316
4.42	98.6824
4.397	98.717
4.375	98.7361
4.353	98.7268
4.331	98.6667
4.309	98.801
4.288	98.6785
4.267	98.1316
4.246	98.135
4.225	98.8142
4.205	98.824
4.184	98.7502
4.164	98.9612
4.144	98.9363
4.124	98.9573
4.105	98.969
4.085	98.9885
4.066	98.968
4.047	99.0339
4.028	99.0276
4.009	99.0212
3.991	99.0173
3.973	99.0315
3.954	99.1174
3.936	99.1252
3.918	99.1872
3.901	99.2014
3.883	99.1038
3.866	99.1311
3.849	99.1599
3.832	99.1526
3.815	99.0818
3.798	99.0945
3.781	99.1101
3.765	99.0749
3.748	98.9568
3.732	98.9573
3.716	98.8992
3.7	98.7639
3.685	98.654
3.669	98.6721
3.653	98.5564
3.638	98.5525
3.623	98.4163
3.608	98.3337
3.593	98.2815
3.578	98.0544
3.563	97.9861
3.548	97.8581
3.534	97.5613
3.519	97.2097
3.505	96.3147
3.491	96.5452
3.477	96.4724
3.463	96.2439
3.449	95.9651
3.435	95.4026
3.422	94.3381
3.408	94.5315
3.395	95.0745
3.382	94.9592
3.369	95.1292
3.355	95.0564
3.342	94.9744
3.33	94.8572
3.317	94.7034
3.304	94.4983
3.292	94.2424
3.279	93.9436
3.267	93.6335
3.254	93.238
3.242	92.9861
3.23	92.5017
3.218	92.0457
3.206	91.5144
3.194	91.1921
3.182	90.825
3.171	90.3933
3.159	89.9656
3.148	89.4011
3.136	88.9109
3.125	88.4412
3.114	88.0828
3.102	87.5037
3.091	87.1258
3.08	86.7429
3.069	86.3211
3.058	85.7713
3.048	85.7547
3.037	85.2312
3.026	84.6131
3.016	83.9822
3.005	83.1414
2.995	82.2664
2.985	81.3797
2.974	80.1814
2.964	78.9822
2.954	77.992
2.944	77.2127
2.934	76.7664
2.924	76.3055
2.914	76.2166
2.904	76.5389
2.895	77.1971
2.885	78.0437
2.875	78.9139
2.866	79.7615
2.856	80.8445
2.847	81.6502
2.838	82.5359
2.828	83.2888
2.819	84.1482
2.81	84.9383
2.801	85.6365
2.792	87.0838
2.783	88.5857
2.774	90.0515
2.765	90.9343
2.756	92.1267
2.747	93.7498
2.739	95.1765
2.73	96.8611
2.721	97.9997
2.713	97.4822
2.704	98.4968
2.696	100.156
2.687	100.98
2.679	101.251
2.671	101.469
2.663	101.539
2.654	101.672
2.646	101.555
2.638	101.851
2.63	101.929
2.622	102.135
2.614	102.029
2.606	102.043
2.599	102.07
2.591	102.404
2.583	102.113
2.575	102.094
2.568	102.205
2.56	102.248
2.553	102.33
2.545	102.433
2.538	102.605
2.53	102.539
2.523	102.488
2.515	102.617
2.508	102.424
2.501	102.871
2.494	102.632
2.486	102.859
2.479	102.504
2.472	103.004
2.465	102.929
2.458	102.894
2.451	103.265
2.444	103.025
2.437	103.424
2.43	103.039
2.424	103.351
2.417	103.328
2.41	103.556
2.403	103.5
2.397	103.51
2.39	103.382
2.384	103.879
2.377	103.697
2.37	103.822
2.364	103.767
2.358	103.527
2.351	103.668
2.345	104.236
2.338	103.8
2.332	104.088
2.326	104.197
2.32	103.984
2.313	104.556
2.307	104.414
2.301	104.304
2.295	104.547
2.289	104.609
2.283	104.312
2.277	104.187
2.271	104.304
2.265	104.722
2.259	104.652
2.253	105.117
2.247	104.418
2.241	104.84
2.236	104.906
2.23	104.757
2.224	104.73
2.218	105.094
2.213	104.871
2.207	105.07
2.201	105.632
2.196	105.156
2.19	105.226
2.185	105.691
2.179	105.644
2.174	105.265
2.168	105.785
2.163	106.097
2.157	105.679
2.152	106.039
2.147	106.023
2.141	105.765
2.136	106.004
2.131	107.742
2.126	106.14
2.12	106.64
2.115	106.281
2.11	106.144
2.105	106.726
2.1	106.25
2.095	106.719
2.09	106.441
2.085	106.804
2.079	106.406
