Name: Sandstone (Red)
Type: Rocks
Class: Sedimentary
Subclass: Sandstone
Particle Size: 500 - 1500 Micrometers
Sample No.: sandstone.7
Owner: JHU
Wavelength Range: All
Origin: Sample No. 365,  The Hunt and Salisbury Collection at the U.S.
Description: This is a well-sorted, fine-grained sandstone with slight
Measurement: Directional (10 Degree) Hemispherical Reflectance
X Units: Wavelength (micrometers)
Y Units: Reflectance (percent)
wavelength	value
14.9831	1.4379
14.6445	1.9364
14.3209	1.1422
14.0112	1.414
13.7147	1.378
13.4304	1.4694
13.1577	1.6736
12.8959	2.3222
12.6443	2.1958
12.4023	2.1733
12.1694	1.7198
11.945	1.7738
11.7289	1.8623
11.5203	2.1508
11.3191	2.4835
11.1248	3.1047
10.937	3.8613
10.7555	2.8461
10.5799	2.7016
10.4099	2.8394
10.2454	3.6773
10.0859	4.9104
9.9313	7.7354
9.7814	7.9333
9.636	12.0724
9.4948	15.0163
9.3577	16.3903
9.2245	14.7181
9.095	10.2702
8.9691	7.5523
8.8467	11.0996
8.7275	11.3868
8.6116	9.7836
8.4986	11.9365
8.3886	12.5086
8.2814	13.0287
8.1769	12.6386
8.075	8.6284
7.9756	5.2493
7.8786	2.9228
7.784	2.0409
7.6916	1.5587
7.6014	1.1881
7.5133	1.0335
7.4272	0.9359
7.343	0.8904
7.2607	0.911
7.1803	0.9439
7.1016	0.9667
7.0246	0.9615
6.9493	1.0133
6.8755	0.9752
6.8034	0.9525
6.7327	0.9548
6.6634	1.0389
6.5956	1.0825
6.5292	1.1133
6.464	1.3967
6.4002	1.3676
6.3376	1.0967
6.2762	1.0034
6.216	0.9537
6.157	0.9664
6.099	1.0432
6.0421	1.1074
5.9863	1.1623
5.9315	1.1774
5.8777	1.4263
5.8249	1.8095
5.773	2.187
5.722	2.5375
5.6719	2.1853
5.6227	1.5322
5.5744	1.4578
5.5268	1.6047
5.4801	1.8853
5.4341	1.9177
5.3889	1.5009
5.3445	1.433
5.3008	1.4948
5.2578	1.6376
5.2154	2.1524
5.1738	2.3305
5.1328	2.3108
5.0925	2.3004
5.0528	2.2185
5.0137	2.2616
4.9752	2.5275
4.9373	3.3033
4.9	5.3442
4.8632	9.6448
4.827	12.3935
4.7913	14.3489
4.7561	15.8262
4.7215	16.3841
4.6873	14.3631
4.6536	16.4585
4.6205	19.3462
4.5877	20.7103
4.5555	20.6454
4.5237	17.894
4.4923	14.1836
4.4614	13.6872
4.4309	15.4745
4.4008	17.6866
4.3711	20.8521
4.3418	23.5201
4.3129	24.3054
4.2844	24.2561
4.2563	25.4887
4.2285	25.8927
4.2011	26.2378
4.174	27.1933
4.1473	28.2839
4.1209	29.4317
4.0949	30.638
4.0692	31.398
4.0438	31.4442
4.0187	31.25
3.994	31.3011
3.9695	31.7655
3.9453	32.3495
3.9214	32.4722
3.8979	32.0234
3.8746	31.1711
3.8515	30.5568
3.8288	30.3176
3.8063	30.0467
3.7841	29.2214
3.7621	28.1188
3.7404	27.186
3.7189	27.0126
3.6977	26.8897
3.6767	26.8189
3.656	26.3649
3.6355	25.6306
3.6152	24.7795
3.5951	23.8573
3.5753	22.9842
3.5557	21.2549
3.5363	17.7882
3.5171	14.9175
3.4981	15.9649
3.4793	16.826
3.4607	15.3113
3.4423	13.7469
3.4241	14.1457
3.4061	14.2075
3.3883	13.3938
3.3707	13.0194
3.3533	13.7074
3.336	14.415
3.3189	14.3991
3.302	13.652
3.2853	12.7547
3.2687	11.8825
3.2523	11.0387
3.2361	10.1466
3.22	9.2119
3.204	8.2104
3.1883	7.3448
3.1727	6.772
3.1572	6.3722
3.1419	5.9966
3.1268	5.6114
3.1117	5.2964
3.0969	4.9596
3.0821	4.7356
3.0675	4.6122
3.0531	4.4737
3.0388	4.3944
3.0246	4.2563
3.0105	4.0815
2.9966	4.001
2.9828	3.7966
2.9692	3.6429
2.9556	3.5792
2.9422	3.5439
2.9289	3.5686
2.9157	3.5454
2.9027	3.5508
2.8897	3.6024
2.8769	3.6344
2.8642	3.7817
2.8516	3.7962
2.8391	3.8644
2.8267	3.8935
2.8144	3.8601
2.8022	3.7687
2.7902	3.5316
2.7782	3.0862
2.7664	2.4733
2.7546	1.842
2.7429	2.2656
2.7314	2.3836
2.7199	2.7021
2.7085	2.9682
2.6973	5.9138
2.6861	15.1849
2.675	21.9353
2.664	26.1698
2.6531	29.5051
2.6423	31.4908
2.6315	32.66
2.6209	33.5362
2.6103	34.074
2.5999	34.5109
2.5895	34.8216
2.5792	35.2306
2.569	35.5775
2.5588	35.9295
2.5487	36.0398
2.5388	36.3957
2.5289	36.5748
2.519	36.7739
2.5093	36.822
2.4996	37.0752
2.49	37.2518
2.4805	37.8093
2.471	38.2221
2.4616	38.447
2.4523	38.8631
2.4431	39.3931
2.4339	40.4713
2.4248	41.8335
2.4157	42.8963
2.4068	43.6257
2.3979	43.8983
2.389	43.7825
2.3802	44.0757
2.3715	44.8797
2.3629	45.0362
2.3543	45.0803
2.3458	45.4677
2.3373	46.1601
2.3289	46.8685
2.3206	47.6187
2.3123	48.1013
2.3041	49.0327
2.2959	49.6671
2.2878	50.1247
2.2798	50.3627
2.2718	50.3286
2.2638	50.2855
2.2559	50.1486
2.2481	49.9911
2.2403	49.8272
2.2326	49.5487
2.225	48.3055
2.2173	45.3576
2.2098	39.6217
2.2023	44.5595
2.1948	47.0937
2.1874	49.3988
2.18	50.9242
2.1727	51.3331
2.1655	51.3992
2.1583	51.8456
2.1511	53.441
2.144	55.5842
2.1369	56.634
2.1299	56.9819
2.1229	57.0901
2.116	57.0899
2.1091	57.1382
2.1023	57.3473
2.0955	57.2561
2.0887	57.358
2.082	57.6073
2.06	57.2004
2.028	57.0473
1.996	54.39
1.964	51.3922
1.932	47.6492
1.9	41.7085
1.868	60.0859
1.836	63.8661
1.804	64.1993
1.772	64.233
1.74	64.7843
1.708	64.4655
1.676	64.6141
1.644	64.9914
1.612	64.7472
1.58	64.6118
1.548	64.1941
1.516	63.0001
1.484	61.8518
1.452	59.9587
1.42	56.5534
1.388	55.0249
1.356	63.3585
1.324	64.3755
1.292	64.9066
1.26	64.7279
1.228	64.2054
1.196	64.1119
1.164	63.634
1.132	62.5885
1.1	61.5679
1.068	59.9293
1.036	58.9187
1.004	56.5217
0.972	53.6538
0.94	50.7618
0.908	48.3226
0.876	46.3984
0.844	45.3496
0.812	44.4496
0.795	45.5974
0.787	45.4489
0.779	45.3261
0.771	44.6495
0.763	44.7358
0.755	44.5603
0.747	44.0627
0.739	43.5943
0.731	43.1804
0.723	42.1297
0.715	41.7429
0.707	40.877
0.699	40.7308
0.691	39.8093
0.683	38.5224
0.675	38.0097
0.667	37.5233
0.659	36.5303
0.651	35.6181
0.643	35.4273
0.635	34.3732
0.627	33.8679
0.619	32.9909
0.611	31.7956
0.603	30.3713
0.595	28.5364
0.587	26.2786
0.579	23.5194
0.571	20.574
0.563	17.7303
0.555	15.495
0.547	13.9199
0.539	12.7694
0.531	11.8535
0.523	11.2991
0.515	10.9364
0.507	10.5072
0.499	10.2304
0.491	9.9002
0.483	9.6393
0.475	9.3589
0.467	9.3002
0.459	8.7136
0.451	8.6206
0.443	8.2212
0.435	7.9791
0.427	7.4107
0.419	7.0464
0.411	7.1677
0.403	6.9496
