Name: Diabase
Type: Rocks
Class: Igneous
Subclass: Mafic
Particle Size: Solid
Sample No.: Diabase.H1
Owner: JHU
Origin: from St. Peters, Pennsylvania, via Ward's Scientific (Cat. No. W-
Description: A medium-grained dark gray rock consisting of feldspar and
Measurement: Directional (10 degree) hemispherical reflectance
X Units: Wavelength (micrometers)
Y Units: Reflectance (percent)
wavelength	value
14.0112	4.5272
13.7147	4.0378
13.4304	4.2333
13.1577	4.3301
12.8959	4.2698
12.6443	4.3906
12.4023	4.8811
12.1694	5.0937
11.945	5.94
11.7289	7.0558
11.5203	8.5314
11.3191	9.8737
11.1248	10.3914
10.937	10.7698
10.7555	11.301
10.5799	11.5094
10.4099	11.6506
10.2454	10.7629
10.0859	10.683
9.9313	10.9408
9.7814	11.1548
9.636	10.9158
9.4948	11.0311
9.3577	12.0244
9.2245	12.5742
9.095	13.0389
8.9691	12.6659
8.8467	10.7725
8.7275	8.9716
8.6116	7.5039
8.4986	7.8504
8.3886	7.293
8.2814	5.9273
8.1769	4.1049
8.075	2.6341
7.9756	1.8166
7.8786	1.4698
7.784	1.3974
7.6916	1.4179
7.6014	1.4506
7.5133	1.5408
7.4272	1.6509
7.343	1.7548
7.2607	1.8518
7.1803	1.9662
7.1016	2.0805
7.0246	2.2024
6.9493	2.2805
6.8755	2.3592
6.8034	2.4382
6.7327	2.4832
6.6634	2.516
6.5956	2.5697
6.5292	2.5788
6.464	2.5756
6.4002	2.6283
6.3376	2.6062
6.2762	2.6231
6.216	2.666
6.157	2.7077
6.099	2.7654
6.0421	2.8594
5.9863	2.9119
5.9315	3.0317
5.8777	3.2018
5.8249	3.3909
5.773	3.5578
5.722	3.656
5.6719	3.7575
5.6227	3.7743
5.5744	3.8693
5.5268	3.9639
5.4801	4.0434
5.4341	4.0915
5.3889	4.0868
5.3445	4.1147
5.3008	4.1271
5.2578	4.2112
5.2154	4.3265
5.1738	4.4292
5.1328	4.541
5.0925	4.6127
5.0528	4.7145
5.0137	4.8766
4.9752	5.0498
4.9373	5.2247
4.9	5.385
4.8632	5.5781
4.827	5.7443
4.7913	5.9351
4.7561	6.0616
4.7215	6.2862
4.6873	6.4429
4.6536	6.6839
4.6205	6.9056
4.5877	7.1442
4.5555	7.3457
4.5237	7.5199
4.4923	7.6146
4.4614	7.7247
4.4309	7.8829
4.4008	8.007
4.3711	8.1391
4.3418	8.2652
4.3129	8.3864
4.2844	8.5247
4.2563	8.6353
4.2285	8.7452
4.2011	8.8031
4.174	8.895
4.1473	8.9821
4.1209	9.0722
4.0949	9.1092
4.0692	9.2111
4.0438	9.2721
4.0187	9.3246
3.994	9.361
3.9695	9.4359
3.9453	9.4633
3.9214	9.5672
3.8979	9.6037
3.8746	9.6244
3.8515	9.6813
3.8288	9.7268
3.8063	9.7465
3.7841	9.8013
3.7621	9.827
3.7404	9.8522
3.7189	9.8772
3.6977	9.9187
3.6767	9.9517
3.656	9.9761
3.6355	9.9708
3.6152	9.9979
3.5951	10.0179
3.5753	9.9902
3.5557	10.0167
3.5363	9.9883
3.5171	9.8346
3.4981	9.6138
3.4793	9.7322
3.4607	9.7502
3.4423	9.6176
3.4241	9.2252
3.4061	9.3161
3.3883	9.5288
3.3707	9.5841
3.3533	9.7713
3.336	9.8034
3.3189	9.7667
3.302	9.7291
3.2853	9.6532
3.2687	9.535
3.2523	9.3787
3.2361	9.2631
3.22	9.0356
3.204	8.8436
3.1883	8.6784
3.1727	8.4852
3.1572	8.3062
3.1419	8.1415
3.1268	8.0086
3.1117	7.8888
3.0969	7.7777
3.0821	7.7252
3.0675	7.6603
3.0531	7.6828
3.0388	7.672
3.0246	7.6382
3.0105	7.6282
2.9966	7.5722
2.9828	7.568
2.9692	7.5278
2.9556	7.5473
2.9422	7.552
2.9289	7.6218
2.9157	7.6837
2.9027	7.7691
2.8897	7.878
2.8769	8.0124
2.8642	8.1018
2.8516	8.1426
2.8391	8.1808
2.8267	8.2943
2.8144	8.3475
2.8022	8.487
2.7902	8.5561
2.7782	8.6582
2.7664	8.8221
2.7546	9.0152
2.7429	9.0337
2.7314	9.2125
2.7199	9.7465
2.7085	11.2685
2.6973	11.7953
2.6861	12.2503
2.675	12.6865
2.664	12.6945
2.6531	12.7498
2.6423	12.6496
2.6315	12.7087
2.6209	12.7431
2.6103	12.6504
2.5999	12.6316
2.5895	12.6441
2.5792	12.5885
2.569	12.5815
2.5588	12.562
2.5487	12.48
2.5388	12.4994
2.5289	12.4314
2.519	12.4385
2.5093	12.3932
2.4996	12.3566
2.49	12.3046
2.4805	12.2867
2.471	12.2384
2.4616	12.2747
2.4523	12.303
2.4431	12.254
2.4339	12.2125
2.4248	12.1284
2.4157	12.1771
2.4068	12.1155
2.3979	12.0286
2.389	12.0281
2.3802	12.0433
2.3715	12.0602
2.3629	12.0398
2.3543	11.9618
2.3458	11.8856
2.3373	11.9322
2.3289	11.8652
2.3206	11.9486
2.3123	11.9041
2.3041	11.9238
2.2959	11.9488
2.2878	11.9273
2.2798	11.9416
2.2718	11.98
2.2638	11.9454
2.2559	11.9423
2.2481	11.935
2.2403	11.943
2.2326	11.969
2.225	11.9625
2.2173	11.9917
2.2098	12.0314
2.2023	11.9892
2.1948	12.0387
2.1874	11.9901
2.18	12.0319
2.1727	11.9678
2.1655	12.0145
2.1583	12.066
2.1511	12.0586
2.144	12.0239
2.1369	12.0131
2.1299	12.0799
2.1229	12.0852
2.116	12.1298
2.1091	12.1036
2.1023	12.1043
2.0955	12.1003
2.0887	12.0738
2.082	12.142
2.06	12.1989
2.028	12.1623
1.996	12.1758
1.964	12.3764
1.932	12.3805
1.9	12.5085
1.868	12.626
1.836	12.6737
1.804	12.9281
1.772	13.0785
1.74	13.2052
1.708	13.355
1.676	13.3848
1.644	13.5777
1.612	13.8215
1.58	14.1261
1.548	14.255
1.516	14.3912
1.484	14.5727
1.452	14.6407
1.42	14.6655
1.388	14.7043
1.356	14.7689
1.324	14.8479
1.292	15.0522
1.26	15.0356
1.228	15.077
1.196	14.858
1.164	15.0074
1.132	14.9384
1.1	14.9366
1.068	14.9154
1.036	14.8787
1.004	14.8134
0.972	14.8661
0.94	15.2799
0.908	15.5895
0.876	15.9929
0.844	16.5048
0.812	17.0589
0.795	17.2151
0.787	17.4476
0.779	17.3312
0.771	17.6015
0.763	17.724
0.755	17.5284
0.747	17.6489
0.739	18.0862
0.731	17.9335
0.723	18.2281
0.715	18.0556
0.707	17.8994
0.699	18.0014
0.691	17.8901
0.683	18.0777
0.675	18.0423
0.667	17.962
0.659	17.93
0.651	18.2478
0.643	18.3213
0.635	18.2152
0.627	18.4802
0.619	18.3419
0.611	17.9676
0.603	18.3827
0.595	18.2063
0.587	18.2368
0.579	18.0116
0.571	18.1359
0.563	18.0507
0.555	18.1321
0.547	18.2598
0.539	18.5326
0.531	17.9455
0.523	18.0606
0.515	17.8432
0.507	18.036
0.499	17.9519
0.491	17.7051
0.483	17.6314
0.475	17.338
0.467	17.5256
0.459	17.1945
0.451	17.404
0.443	16.906
0.435	16.3992
0.427	16.0361
0.419	16.1825
0.411	15.7781
0.403	14.9306
