Name: Andradite Ca3Fe2+3 (SiO4)3
Type: Mineral
Class: Silicates
Subclass: Nesosilicates  (Isolated tetrahedra) (Garnet Group)
Particle Size: Fine (less than 75 Micrometers)
Sample No.: andradite.1
Owner: JHU
Wavelength Range: IR
Origin: Sample from Rimpfischwange, Zermatt, Valais, Switzerland,
Description: A cluster of subhedral green crystals, some coated with a
Measurement: Bidirectional Reflectance
X Units: Wavelength (micrometers)
Y Units: Reflectance (percent)
wavelength	value
25.044	2.9746
24.339	2.3728
23.672	0.6643
23.041	1.9932
22.442	2.3723
21.874	1.3577
21.334	0.5552
20.82	1.1924
20.33	0.614
19.863	1.2104
19.416	1.9473
18.99	1.9114
18.581	0.637
18.19	0.3057
17.815	0.791
17.455	1.1677
17.109	1.0156
16.777	0.9739
16.458	1.9683
16.15	2.2815
15.854	2.5947
15.568	2.7744
15.292	2.9016
15.027	2.9136
14.77	2.9531
14.521	2.978
14.281	2.905
14.049	2.7888
13.824	2.5666
13.607	2.1868
13.396	1.937
13.191	1.7373
12.993	1.6372
12.8	1.5576
12.614	1.6072
12.432	2.0654
12.256	2.0491
12.084	2.22
11.918	2.3657
11.755	1.8374
11.598	0.6821
11.444	1.3127
11.294	2.531
11.149	2.8542
11.007	2.8906
10.868	3.0312
10.733	3.1789
10.602	3.2319
10.473	3.2839
10.348	3.8642
10.225	4.4358
10.106	4.2366
9.989	3.3306
9.875	2.1262
9.763	0.7476
9.654	0.1326
9.547	0.1624
9.443	0.4416
9.341	0.7458
9.241	1.0444
9.143	1.4341
9.047	1.845
8.954	2.2119
8.862	2.3591
8.772	2.4456
8.684	2.5481
8.597	2.7397
8.513	2.988
8.43	3.2222
8.348	3.4875
8.268	3.7568
8.19	4.1352
8.113	4.4353
8.037	4.5771
7.963	4.6055
7.891	4.6904
7.819	4.7239
7.749	4.6352
7.68	4.8066
7.613	4.979
7.546	5.0036
7.481	5.1409
7.417	5.0932
7.353	4.8335
7.291	4.886
7.23	5.3342
7.17	5.3223
7.111	5.5163
7.053	6.0937
6.996	6.6123
6.94	6.9165
6.885	7.1506
6.83	7.2973
6.777	7.5161
6.724	7.7807
6.672	7.9665
6.621	8.0801
6.571	8.1006
6.521	8.1042
6.472	8.061
6.424	8.0085
6.377	7.9348
6.33	7.6413
6.284	7.1723
6.238	6.334
6.194	5.0779
6.15	4.4346
6.106	3.9751
6.063	3.4534
6.021	2.9563
5.979	3.178
5.938	3.6035
5.898	3.8628
5.858	4.2109
5.818	4.5649
5.779	4.9277
5.741	5.2461
5.703	5.5825
5.666	5.573
5.629	5.6699
5.592	5.4785
5.556	4.9111
5.521	5.4543
5.486	6.4094
5.451	6.6616
5.417	6.893
5.383	7.5788
5.35	8.4101
5.317	8.9035
5.285	9.1672
5.252	9.3174
5.221	9.4038
5.189	9.4922
5.158	9.5793
5.128	9.6106
5.097	9.687
5.068	9.8572
5.038	10.0046
5.009	10.092
4.98	10.1594
4.951	10.2217
4.923	10.2759
4.895	10.3393
4.868	10.4204
4.84	10.5029
4.814	10.5747
4.787	10.6404
4.76	10.6755
4.734	10.7224
4.709	10.7519
4.683	10.7724
4.658	10.7846
4.633	10.8015
4.608	10.8208
4.584	10.833
4.56	10.8318
4.536	10.834
4.512	10.8257
4.488	10.8332
4.465	10.8479
4.442	10.8467
4.42	10.8462
4.397	10.8408
4.375	10.8164
4.353	10.7981
4.331	10.7754
4.309	10.7544
4.288	10.7121
4.267	10.6838
4.246	10.6657
4.225	10.6672
4.205	10.667
4.184	10.6491
4.164	10.6223
4.144	10.5451
4.124	10.4597
4.105	10.3818
4.085	10.3037
4.066	10.2663
4.047	10.2568
4.028	10.2805
4.009	10.3015
3.991	10.3281
3.973	10.3703
3.954	10.4292
3.936	10.5019
3.918	10.5771
3.901	10.654
3.883	10.7148
3.866	10.7759
3.849	10.8493
3.832	10.9267
3.815	11.0224
3.798	11.1382
3.781	11.2673
3.765	11.4011
3.748	11.5263
3.732	11.6228
3.716	11.667
3.7	11.6711
3.685	11.6233
3.669	11.5317
3.653	11.4431
3.638	11.3598
3.623	11.2834
3.608	11.2258
3.593	11.188
3.578	11.144
3.563	11.1091
3.548	11.0605
3.534	11.0114
3.519	10.9416
3.505	10.7339
3.491	10.7812
3.477	10.8457
3.463	10.852
3.449	10.8186
3.435	10.75
3.422	10.5576
3.408	10.6301
3.395	10.8745
3.382	10.9546
3.369	11.0725
3.355	11.2336
3.342	11.3357
3.33	11.4394
3.317	11.4966
3.304	11.5498
3.292	11.5915
3.279	11.6411
3.267	11.6667
3.254	11.6919
3.242	11.7214
3.23	11.7282
3.218	11.7485
3.206	11.7487
3.194	11.7412
3.182	11.7422
3.171	11.7441
3.159	11.7348
3.148	11.7165
3.136	11.6997
3.125	11.6833
3.114	11.6523
3.102	11.6572
3.091	11.6423
3.08	11.6406
3.069	11.6237
3.058	11.5796
3.048	11.5327
3.037	11.5014
3.026	11.4475
3.016	11.3916
3.005	11.331
2.995	11.2724
2.985	11.2165
2.974	11.1406
2.964	11.1081
2.954	11.1091
2.944	11.1384
2.934	11.166
2.924	11.1687
2.914	11.1579
2.904	11.1074
2.895	11.0002
2.885	10.8164
2.875	10.5686
2.866	10.3174
2.856	9.9465
2.847	9.3889
2.838	8.5371
2.828	7.4983
2.819	6.4831
2.81	5.5454
2.801	5.9509
2.792	7.7886
2.783	8.614
2.774	7.7378
2.765	9.217
2.756	10.2497
2.747	11.2021
2.739	11.4985
2.73	11.8091
2.721	12.1748
2.713	12.2551
2.704	12.6338
2.696	13.351
2.687	13.6262
2.679	13.7902
2.671	13.8798
2.663	14.0007
2.654	14.071
2.646	14.1223
2.638	14.1762
2.63	14.2111
2.622	14.2861
2.614	14.3066
2.606	14.3383
2.599	14.3842
2.591	14.4204
2.583	14.4082
2.575	14.4577
2.568	14.4563
2.56	14.4836
2.553	14.4712
2.545	14.4919
2.538	14.4887
2.53	14.5022
2.523	14.5434
2.515	14.5815
2.508	14.6552
2.501	14.6574
2.494	14.7133
2.486	14.7553
2.479	14.8195
2.472	14.8234
2.465	14.841
2.458	14.8925
2.451	14.8991
2.444	14.8935
2.437	14.8845
2.43	14.8618
2.424	14.8911
2.417	14.9025
2.41	14.9072
2.403	14.9372
2.397	14.947
2.39	15.0102
2.384	15.082
2.377	15.154
2.37	15.1987
2.364	15.2617
2.358	15.28
2.351	15.3352
2.345	15.3457
2.338	15.3266
2.332	15.332
2.326	15.3471
2.32	15.3867
2.313	15.4013
2.307	15.3855
2.301	15.4084
2.295	15.4096
2.289	15.447
2.283	15.4502
2.277	15.4519
2.271	15.4394
2.265	15.4843
2.259	15.5178
2.253	15.5366
2.247	15.6035
2.241	15.581
2.236	15.6289
2.23	15.6318
2.224	15.6113
2.218	15.7075
2.213	15.7099
2.207	15.7631
2.201	15.7768
2.196	15.8007
2.19	15.8056
2.185	15.8603
2.179	15.8684
2.174	15.8862
2.168	15.9506
2.163	15.9419
2.157	15.8984
2.152	15.924
2.147	15.9489
2.141	15.9284
2.136	15.9863
2.131	15.9856
2.126	15.9948
2.12	15.9609
2.115	16.0097
2.11	16.0205
2.105	16.073
2.1	16.0612
2.095	16.0776
2.09	16.1511
2.085	16.1066
2.079	16.122
