Name: Muscovite KAl2(Si3Al)O10(OH,F)2
Type: Mineral
Class: Silicates
Subclass: Phyllosilicates (Sheet Silicates); (MicaGroup)
Particle Size: Solid (001 face)
Sample No.: muscov.1
Owner: JHU
Wavelength Range: IR
Origin: Methuen Township, Ontario via Bruce Hemingway, USGS
Description: The sample consisted of clear, transparent "books" of
Measurement: Bidirectional reflectance
X Units: Wavelength (micrometers)
Y Units: Reflectance (percent)
wavelength	value
25.0442	26.0429
24.3388	29.2519
23.6719	27.1484
23.0407	27.4589
22.4422	28.2753
21.8741	31.1093
21.334	36.537
20.8199	42.5043
20.33	41.016
19.8627	36.9345
19.4163	34.9149
18.9896	38.5702
18.5812	48.8495
18.19	51.2626
17.815	46.5477
17.4551	40.8915
17.1094	44.8261
16.7772	46.9388
16.4576	36.9081
16.15	27.2001
15.8537	22.142
15.568	17.7192
15.2925	16.9975
15.0265	18.2211
14.7697	18.9211
14.5214	19.0502
14.2814	19.0927
14.0492	19.1792
13.8244	19.5505
13.6067	19.7983
13.3957	20.3703
13.1912	20.1254
12.9929	18.8469
12.8004	18.5432
12.6135	18.4721
12.432	18.6787
12.2557	18.1362
12.0843	18.7187
11.9176	19.7502
11.7555	22.1457
11.5977	23.8513
11.444	24.5534
11.2944	24.8259
11.1487	25.1681
11.0067	25.5966
10.8682	25.8937
10.7332	25.9191
10.6015	25.1381
10.473	25.7011
10.3476	28.499
10.2251	32.3105
10.1056	35.9057
9.98873	37.7763
9.87458	40.8173
9.763	45.6071
9.65392	52.7421
9.54724	50.347
9.44291	44.6935
9.34082	47.7689
9.24091	50.965
9.14312	53.2118
9.04739	54.9657
8.95363	56.7857
8.8618	56.0541
8.77183	51.8983
8.68368	45.7894
8.59727	42.2875
8.51257	36.1332
8.42951	28.4096
8.34807	19.2441
8.26819	9.9765
8.18981	6.7529
8.11292	8.2119
8.03745	9.8069
7.96337	10.5722
7.89064	11.291
7.81924	12.0581
7.74911	12.2854
7.68023	12.1294
7.61256	12.1091
7.54608	12.2661
7.48074	12.1821
7.41653	12.0529
7.35341	12.0412
7.29136	12.405
7.23034	13.0957
7.17033	13.6928
7.11132	14.3686
7.05327	14.8569
6.99616	15.4433
6.93996	16.1154
6.88467	16.7321
6.83024	17.3774
6.77667	18.3518
6.72393	19.0568
6.67201	19.6494
6.62089	19.9975
6.57054	20.1235
6.52095	20.2519
6.4721	20.4799
6.42398	20.5854
6.37657	20.8708
6.32986	21.3491
6.28382	21.7607
6.23845	21.7934
6.19373	21.7065
6.14965	21.5776
6.10619	21.3149
6.06334	21.0561
6.02109	20.7778
5.97942	20.5332
5.93832	20.1289
5.89778	20.1415
5.8578	20.4218
5.81835	20.5417
5.77943	20.5881
5.74103	20.4572
5.70314	20.2377
5.66574	19.9016
5.62883	19.5083
5.5924	19.1733
5.55644	18.8144
5.52093	18.529
5.48588	18.2023
5.45127	17.9909
5.41709	17.8579
5.38334	17.8862
5.35	17.871
5.31708	18.1335
5.28456	18.3693
5.25243	18.7104
5.2207	19.018
5.18934	19.6174
5.15836	20.4575
5.12775	21.3569
5.09749	21.9726
5.0676	22.2819
5.03805	22.7289
5.00884	23.1245
4.97998	23.5136
4.95144	23.6611
4.92322	24.0173
4.89533	24.3908
4.86775	24.7717
4.84048	25.0698
4.81351	25.3202
4.78684	25.8381
4.76047	26.4575
4.73439	27.1933
4.70859	27.6772
4.68306	28.5141
4.65782	29.4775
4.63284	30.9208
4.60814	31.9892
4.58369	33.1669
4.5595	34.0385
4.53557	35.2296
4.51188	36.0878
4.48845	37.0106
4.46525	37.9135
4.44229	38.933
4.41957	39.8998
4.39708	40.4838
4.37481	40.7824
4.35277	40.9569
4.33096	41.2543
4.30935	41.5365
4.28797	41.6737
4.26679	41.6513
4.24583	41.6547
4.22506	41.6098
4.2045	41.7348
4.18414	41.7848
4.16398	41.7816
4.14401	41.7816
4.12423	41.6767
4.10464	41.6166
4.08523	41.5311
4.066	41.4843
4.04696	41.6154
4.02809	41.7147
4.0094	41.7592
3.99088	41.725
3.97253	41.6996
3.95435	41.7206
3.93634	41.6781
3.91848	41.6903
3.90079	41.661
3.88326	41.5233
3.86589	41.3837
3.84867	41.2924
3.8316	41.2894
3.81468	41.369
3.79791	41.4599
3.78129	41.3642
3.76482	41.0819
3.74848	40.5553
3.73229	39.7797
3.71624	39.4711
3.70032	39.3075
3.68454	39.4247
3.6689	39.5131
3.65338	39.7392
3.638	40.0551
3.62275	40.5224
3.60762	41.037
3.59262	41.4354
3.57775	41.8034
3.56299	42.0565
3.54836	42.2968
3.53385	42.4882
3.51945	42.7277
3.50517	42.7731
3.49101	42.9423
3.47696	43.0534
3.46303	43.1679
3.4492	43.1771
3.43549	43.1569
3.42188	43.059
3.40838	43.0502
3.39499	43.0267
3.38171	43.2255
3.36852	43.2421
3.35544	43.2533
3.34246	43.205
3.32958	43.1906
3.3168	43.1369
3.30411	43.1825
3.29153	43.1679
3.27903	43.0797
3.26664	42.9286
3.25433	42.7697
3.24212	42.5775
3.23	42.3507
3.21797	42.035
3.20603	41.7597
3.19418	41.5978
3.18241	41.494
3.17074	41.3192
3.15914	41.2455
3.14763	41.1427
3.13621	40.9525
3.12487	40.7504
3.11361	40.4816
3.10243	40.2318
3.09133	40.0646
3.0803	39.9022
3.06936	39.6952
3.0585	39.455
3.04771	39.1818
3.037	38.9633
3.02636	38.7572
3.0158	38.6986
3.00531	38.6007
2.99489	38.3615
2.98454	37.8957
2.97427	37.4579
2.96407	36.797
2.95393	36.0507
2.94387	35.0607
2.93387	33.6942
2.92394	32.175
2.91408	30.5265
2.90429	29.33
2.89456	28.672
2.88489	28.4338
2.87529	28.5353
2.86576	29.1398
2.85628	29.2218
2.84687	28.4755
2.83752	27.2773
2.82823	26.0871
2.81901	24.4828
2.80984	22.164
2.80073	20.5009
2.79168	19.8793
2.78269	19.2915
2.77376	18.6303
2.76488	17.561
2.75606	16.3969
2.7473	15.7568
2.73859	15.3828
2.72994	14.9438
2.72134	15.5742
2.7128	18.7265
2.70431	24.0356
2.69587	26.8154
2.68748	28.1957
2.67915	29.0141
2.67087	29.7363
2.66264	31.2968
2.65446	32.246
2.64633	32.9399
2.63825	33.477
2.63021	33.4179
2.62223	33.5038
2.6143	33.3388
2.60641	33.2284
2.59857	33.2777
2.59078	33.5234
2.58304	33.4501
2.57534	33.6371
2.56768	33.7343
2.56008	33.8871
2.55251	34.0981
2.54499	34.2362
2.53752	34.2192
2.53009	33.9159
2.5227	33.5395
2.51536	32.9853
2.50806	32.5175
2.5008	32.0785
2.49358	31.8319
2.4864	31.4902
2.47927	31.1835
2.47218	30.8383
2.46512	30.3925
2.45811	29.8388
2.45114	29.205
2.4442	28.6606
2.43731	28.3222
2.43045	28.373
2.42363	28.5864
2.41685	29.0649
2.41011	29.5038
2.40341	29.9355
2.39674	30.0082
2.39011	29.7778
2.38352	29.4902
2.37696	29.6386
2.37044	29.7636
2.36395	29.9086
2.35751	29.5614
2.35109	29.0116
2.34471	28.7909
2.33836	29.0595
2.33205	29.5722
2.32578	30.4374
2.31953	31.289
2.31332	31.9657
2.30714	32.9413
2.301	33.661
2.29489	34.4804
2.28881	34.8446
2.28276	35.1552
2.27675	35.3124
2.27076	35.4062
2.26481	35.2509
2.25889	35.0839
2.253	34.9267
2.24714	34.7392
2.24131	34.0624
2.23551	33.371
2.22974	32.8593
2.224	32.5292
2.21829	31.3778
2.21261	29.2714
2.20696	26.7665
2.20134	24.9218
2.19574	24.623
2.19018	25.4941
2.18464	27.7187
2.17913	30.3876
2.17365	32.9892
2.16819	34.8554
2.16277	36.1298
2.15737	36.661
2.15199	37.1991
2.14665	37.5663
2.14133	37.8251
2.13603	38.2118
2.13077	38.1659
2.12552	38.2196
2.12031	38.1522
2.11512	38.2968
2.10995	38.6483
2.10481	38.7694
2.0997	38.8329
2.09461	39.0136
2.08954	39.3183
2.0845	39.4804
2.07948	39.4267
