Name: 14148.183
Type: Soil
Class: Lunar
Subclass: Transitional
Particle Size: Fine
Sample No.: 14148.183
Owner: JHU
Origin: Apollo 14 landing site via the NASA Lunar Sample Repository at Johnson
Description: This sample is one of a suite of soils at the Apollo 14 site
Measurement: Directional (10 degree) hemispherical reflectance
X Units: Wavelength (micrometers)
Y Units: Reflectance (percent)
wavelength	value
14.011	0.7643
13.788	0.9443
13.571	1.1052
13.361	1.1426
13.158	1.1882
12.96	1.3368
12.769	1.479
12.583	1.7151
12.402	1.9324
12.227	2.044
12.056	2.0523
11.89	2.0358
11.729	2.0561
11.572	2.0614
11.419	2.0712
11.27	2.032
11.125	1.9951
10.983	1.9994
10.846	2.0063
10.711	2.0155
10.58	1.9328
10.452	1.8508
10.327	1.7308
10.205	1.6829
10.086	1.6145
9.97	1.5975
9.856	1.5439
9.745	1.5823
9.636	1.5318
9.53	1.5509
9.426	1.5052
9.324	1.4823
9.225	1.4328
9.127	1.4176
9.032	1.2787
8.938	1.1652
8.847	1.0002
8.757	0.9373
8.669	0.8779
8.583	0.812
8.499	0.7688
8.416	0.6897
8.335	0.6206
8.255	0.6174
8.177	0.6778
8.1	0.7904
8.025	1.0782
7.951	1.4904
7.879	1.9942
7.808	2.5436
7.737	3.0999
7.669	3.7345
7.601	4.2861
7.535	4.8428
7.47	5.4304
7.406	5.9765
7.343	6.5002
7.281	7.0052
7.22	7.4722
7.16	7.8859
7.102	8.3078
7.044	8.6854
6.987	9.0212
6.931	9.3572
6.875	9.6865
6.821	9.8966
6.768	10.153
6.715	10.316
6.663	10.434
6.612	10.569
6.562	10.732
6.513	10.895
6.464	11.059
6.416	11.119
6.369	11.187
6.322	11.195
6.276	11.283
6.231	11.343
6.186	11.443
6.142	11.605
6.099	11.776
6.056	11.932
6.014	12.132
5.973	12.395
5.931	12.768
5.891	13.185
5.851	13.47
5.812	13.784
5.773	14.037
5.735	14.282
5.697	14.411
5.66	14.521
5.623	14.707
5.586	14.914
5.551	15.124
5.515	15.233
5.48	15.33
5.446	15.386
5.411	15.541
5.378	15.68
5.345	15.824
5.312	15.972
5.279	16.131
5.247	16.303
5.215	16.554
5.184	16.813
5.153	17.133
5.123	17.528
5.093	17.874
5.063	18.209
5.033	18.559
5.004	18.903
4.975	19.254
4.947	19.623
4.919	19.976
4.891	20.29
4.863	20.615
4.836	20.919
4.809	21.255
4.782	21.51
4.756	21.797
4.73	22.061
4.704	22.336
4.679	22.605
4.654	22.868
4.629	23.156
4.604	23.388
4.58	23.57
4.556	23.769
4.532	23.915
4.508	24.046
4.485	24.126
4.461	24.243
4.439	24.309
4.416	24.35
4.393	24.419
4.371	24.476
4.349	24.555
4.327	24.631
4.306	24.682
4.284	24.745
4.263	24.753
4.242	24.825
4.222	24.846
4.201	24.856
4.181	24.849
4.161	24.849
4.141	24.878
4.121	24.868
4.101	24.87
4.082	24.879
4.063	24.886
4.044	24.896
4.025	24.913
4.006	24.876
3.988	24.91
3.97	24.894
3.951	24.892
3.933	24.881
3.916	24.827
3.898	24.804
3.88	24.786
3.863	24.776
3.846	24.727
3.829	24.712
3.812	24.656
3.795	24.637
3.779	24.619
3.762	24.58
3.746	24.503
3.73	24.489
3.714	24.443
3.698	24.399
3.682	24.332
3.666	24.285
3.651	24.264
3.636	24.193
3.62	24.165
3.605	24.113
3.59	24.063
3.575	24.014
3.561	24.003
3.546	23.925
3.531	23.852
3.517	23.859
3.503	23.859
3.489	23.769
3.475	23.693
3.461	23.643
3.447	23.631
3.433	23.566
3.42	23.537
3.406	23.514
3.393	23.413
3.38	23.335
3.366	23.284
3.353	23.18
3.34	23.067
3.327	23.061
3.315	22.971
3.302	22.902
3.289	22.862
3.277	22.78
3.265	22.731
3.252	22.688
3.24	22.567
3.228	22.503
3.216	22.452
3.204	22.395
3.192	22.278
3.18	22.297
3.169	22.184
3.157	22.149
3.146	22.06
3.134	22.045
3.123	21.981
3.112	21.913
3.101	21.858
3.09	21.816
3.079	21.727
3.067	21.694
3.057	21.603
3.046	21.577
3.035	21.577
3.025	21.483
3.014	21.421
3.004	21.368
2.993	21.28
2.983	21.249
2.973	21.248
2.962	21.199
2.952	21.164
2.942	21.122
2.932	21.097
2.922	21.039
2.912	20.992
2.903	20.95
2.893	20.956
2.883	20.924
2.874	20.884
2.864	20.912
2.855	20.829
2.845	20.877
2.836	20.792
2.827	20.804
2.817	20.85
2.808	20.855
2.799	20.945
2.79	20.995
2.781	21.097
2.772	21.21
2.763	21.373
2.755	21.525
2.746	21.736
2.737	21.891
2.728	21.982
2.72	22.051
2.711	22.139
2.703	22.236
2.695	22.158
2.686	22.218
2.678	22.16
2.67	22.167
2.661	22.214
2.653	22.145
2.645	22.101
2.637	22.133
2.629	22.033
2.621	22.027
2.613	21.963
2.605	21.891
2.597	21.889
2.59	21.858
2.582	21.794
2.574	21.718
2.566	21.735
2.559	21.628
2.551	21.619
2.544	21.572
2.536	21.514
2.529	21.439
2.522	21.418
2.514	21.401
2.507	21.335
2.5	21.295
2.492	21.238
2.485	21.183
2.478	21.137
2.471	21.107
2.464	21.033
2.457	20.929
2.45	20.943
2.443	20.894
2.436	20.824
2.429	20.778
2.422	20.735
2.416	20.702
2.409	20.603
2.402	20.563
2.396	20.535
2.389	20.479
2.382	20.474
2.376	20.39
2.369	20.316
2.363	20.262
2.356	20.251
2.35	20.22
2.344	20.157
2.337	20.027
2.331	20.077
2.325	20
2.318	19.974
2.312	19.893
2.306	19.866
2.3	19.788
2.294	19.766
2.288	19.671
2.282	19.649
2.276	19.603
2.27	19.517
2.264	19.55
2.258	19.437
2.252	19.381
2.246	19.318
2.24	19.283
2.235	19.303
2.229	19.195
2.223	19.136
2.217	19.112
2.212	19.11
2.206	19.028
2.2	19.032
2.195	18.949
2.189	18.888
2.184	18.845
2.178	18.818
2.173	18.828
2.167	18.733
2.162	18.74
2.156	18.628
2.151	18.552
2.146	18.6
2.14	18.585
2.135	18.49
2.13	18.492
2.125	18.439
2.119	18.456
2.114	18.292
2.109	18.321
2.104	18.263
2.099	18.27
2.094	18.218
2.089	18.192
2.084	18.123
