Name: Goethite a-Fe+3O(OH)
Type: Mineral
Class: Hydroxides
Subclass: (Goethite Group)
Particle Size: Solid (surface normal to layering)
Sample No.: goethite.2
Owner: JHU
Wavelength Range: IR
Origin: Sample from Calavi, Bolivia via the Smithsonian (sample no.
Description: The sample was a 2 cm x 2 cm x 2 cm layered botryoidal
Measurement: Bidirectional reflectance
X Units: Wavelength (micrometers)
Y Units: Reflectance (percent)
wavelength	value
25.0442	35.0702
24.3388	35.7191
23.6719	34.4726
23.0407	33.038
22.4422	32.5575
21.8741	34.0793
21.334	35.1649
20.8199	35.7773
20.33	34.0907
19.8627	30.144
19.4163	26.0536
18.9896	23.4824
18.5812	22.1137
18.19	21.0014
17.815	20.3264
17.4551	19.8164
17.1094	19.3842
16.7772	19.0407
16.4576	18.7001
16.15	18.2302
15.8537	17.4179
15.568	16.4594
15.2925	15.3567
15.0265	14.7951
14.7697	14.1291
14.5214	12.7497
14.2814	11.48
14.0492	10.0798
13.8244	9.0512
13.6067	9.102
13.3957	10.0737
13.1912	11.4609
12.9929	12.8603
12.8004	14.0493
12.6135	14.6005
12.432	14.3569
12.2557	13.7751
12.0843	13.5266
11.9176	13.8366
11.7555	14.5764
11.5977	15.4953
11.444	16.1919
11.2944	16.2177
11.1487	15.4943
11.0067	14.3532
10.8682	13.1169
10.7332	12.0283
10.6015	11.4094
10.473	11.2302
10.3476	11.1826
10.2251	11.1198
10.1056	11.1809
9.98873	11.3979
9.87458	11.6953
9.763	11.9035
9.65392	12.1255
9.54724	11.9638
9.44291	11.8222
9.34082	11.8601
9.24091	11.9431
9.14312	12.082
9.04739	12.1828
8.95363	12.167
8.8618	12.1272
8.77183	12.0708
8.68368	12.0595
8.59727	12.0695
8.51257	12.0783
8.42951	12.0993
8.34807	12.1399
8.26819	12.1875
8.18981	12.2922
8.11292	12.3989
8.03745	12.5302
7.96337	12.6386
7.89064	12.7705
7.81924	12.873
7.74911	12.9387
7.68023	12.9907
7.61256	13.0539
7.54608	13.1096
7.48074	13.1428
7.41653	13.1862
7.35341	13.2219
7.29136	13.2487
7.23034	13.2754
7.17033	13.2785
7.11132	13.3298
7.05327	13.3598
6.99616	13.3928
6.93996	13.425
6.88467	13.4594
6.83024	13.4892
6.77667	13.4763
6.72393	13.4448
6.67201	13.4619
6.62089	13.4983
6.57054	13.5388
6.52095	13.667
6.4721	13.7221
6.42398	13.6909
6.37657	13.7375
6.32986	13.7827
6.28382	13.8068
6.23845	13.8325
6.19373	13.8342
6.14965	13.8479
6.10619	13.831
6.06334	13.8364
6.02109	13.8264
5.97942	13.728
5.93832	13.593
5.89778	13.5713
5.8578	13.6477
5.81835	13.6093
5.77943	13.6328
5.74103	13.6154
5.70314	13.549
5.66574	13.5031
5.62883	13.468
5.5924	13.446
5.55644	13.4223
5.52093	13.4257
5.48588	13.4387
5.45127	13.4836
5.41709	13.4973
5.38334	13.5451
5.35	13.5683
5.31708	13.6352
5.28456	13.6665
5.25243	13.7002
5.2207	13.7321
5.18934	13.7541
5.15836	13.7812
5.12775	13.7788
5.09749	13.7668
5.0676	13.7541
5.03805	13.7309
5.00884	13.7312
4.97998	13.7148
4.95144	13.6933
4.92322	13.7068
4.89533	13.7324
4.86775	13.7409
4.84048	13.7558
4.81351	13.7622
4.78684	13.7612
4.76047	13.7548
4.73439	13.7507
4.70859	13.7348
4.68306	13.7368
4.65782	13.7197
4.63284	13.7131
4.60814	13.717
4.58369	13.7102
4.5595	13.6972
4.53557	13.6928
4.51188	13.6921
4.48845	13.7248
4.46525	13.7527
4.44229	13.7727
4.41957	13.8115
4.39708	13.8405
4.37481	13.8652
4.35277	13.8923
4.33096	13.9033
4.30935	13.9065
4.28797	13.9094
4.26679	13.9084
4.24583	13.9057
4.22506	13.8935
4.2045	13.8796
4.18414	13.8786
4.16398	13.8708
4.14401	13.8925
4.12423	13.9184
4.10464	13.9416
4.08523	13.9821
4.066	14.0088
4.04696	14.0363
4.02809	14.0664
4.0094	14.112
3.99088	14.1096
3.97253	14.1242
3.95435	14.1438
3.93634	14.1411
3.91848	14.1447
3.90079	14.1547
3.88326	14.1423
3.86589	14.1411
3.84867	14.1193
3.8316	14.125
3.81468	14.1291
3.79791	14.1452
3.78129	14.1567
3.76482	14.1721
3.74848	14.1987
3.73229	14.2226
3.71624	14.2295
3.70032	14.2331
3.68454	14.2439
3.6689	14.239
3.65338	14.2487
3.638	14.2561
3.62275	14.2622
3.60762	14.2719
3.59262	14.2805
3.57775	14.2895
3.56299	14.3137
3.54836	14.3337
3.53385	14.3444
3.51945	14.3989
3.50517	14.5026
3.49101	14.4565
3.47696	14.4843
3.46303	14.5217
3.4492	14.5647
3.43549	14.6359
3.42188	14.74
3.40838	14.6533
3.39499	14.6086
3.38171	14.6067
3.36852	14.6027
3.35544	14.5922
3.34246	14.5871
3.32958	14.5976
3.3168	14.5949
3.30411	14.6313
3.29153	14.6115
3.27903	14.5976
3.26664	14.6162
3.25433	14.5957
3.24212	14.5683
3.23	14.5234
3.21797	14.4477
3.20603	14.3789
3.19418	14.268
3.18241	14.1518
3.17074	13.9926
3.15914	13.8593
3.14763	13.6809
3.13621	13.5485
3.12487	13.3999
3.11361	13.2944
3.10243	13.1772
3.09133	13.0861
3.0803	13.0288
3.06936	12.9756
3.0585	12.9292
3.04771	12.9126
3.037	12.9106
3.02636	12.9026
3.0158	12.886
3.00531	12.9048
2.99489	12.9001
2.98454	12.8972
2.97427	12.8952
2.96407	12.8747
2.95393	12.8691
2.94387	12.8593
2.93387	12.8515
2.92394	12.821
2.91408	12.8242
2.90429	12.8169
2.89456	12.821
2.88489	12.7964
2.87529	12.7915
2.86576	12.8032
2.85628	12.8217
2.84687	12.8335
2.83752	12.8452
2.82823	12.8642
2.81901	12.8808
2.80984	12.9155
2.80073	12.9292
2.79168	12.9467
2.78269	12.9843
2.77376	13.0083
2.76488	13.0752
2.75606	13.0883
2.7473	13.1233
2.73859	13.0993
2.72994	13.1401
2.72134	13.1179
2.7128	13.1186
2.70431	13.1372
2.69587	13.1064
2.68748	13.1562
2.67915	13.1626
2.67087	13.1594
2.66264	13.196
2.65446	13.1965
2.64633	13.1914
2.63825	13.2346
2.63021	13.1731
2.62223	13.2382
2.6143	13.217
2.60641	13.2199
2.59857	13.2439
2.59078	13.2334
2.58304	13.2099
2.57534	13.2451
2.56768	13.2441
2.56008	13.2324
2.55251	13.2382
2.54499	13.249
2.53752	13.2551
2.53009	13.2612
2.5227	13.2776
2.51536	13.2697
2.50806	13.2434
2.5008	13.309
2.49358	13.2827
2.4864	13.2519
2.47927	13.2485
2.47218	13.2649
2.46512	13.2092
2.45811	13.2641
2.45114	13.2216
2.4442	13.2512
2.43731	13.2268
2.43045	13.2373
2.42363	13.2072
2.41685	13.25
2.41011	13.2822
2.40341	13.249
2.39674	13.2375
2.39011	13.2695
2.38352	13.2607
2.37696	13.2793
2.37044	13.292
2.36395	13.2895
2.35751	13.3027
2.35109	13.3828
2.34471	13.3559
2.33836	13.3872
2.33205	13.3838
2.32578	13.3696
2.31953	13.4057
2.31332	13.3789
2.30714	13.4008
2.301	13.3755
2.29489	13.4599
2.28881	13.4218
2.28276	13.4355
2.27675	13.4184
2.27076	13.4126
2.26481	13.4912
2.25889	13.4814
2.253	13.4536
2.24714	13.4668
2.24131	13.4218
2.23551	13.559
2.22974	13.5341
2.224	13.5219
2.21829	13.5424
2.21261	13.5688
2.20696	13.5083
2.20134	13.4765
2.19574	13.5439
2.19018	13.5576
2.18464	13.5219
2.17913	13.5381
2.17365	13.5312
2.16819	13.5962
2.16277	13.5976
2.15737	13.5156
2.15199	13.4726
2.14665	13.5298
2.14133	13.4922
2.13603	13.5005
2.13077	13.438
2.12552	13.4433
2.12031	13.4316
2.11512	13.416
2.10995	13.4033
2.10481	13.3818
2.0997	13.3925
2.09461	13.4023
2.08954	13.3691
2.0845	13.3325
2.07948	13.3051
