Name: Montmorillonite (Na,Ca)0.33(Al,Mg)2Si4O10(OH)2.nH2O
Type: Mineral
Class: Silicates
Subclass: Phyllosilicates (Sheet Silicates); (SmectiteGroup)
Particle Size: 0-2 micrometers.  (Packed powder simulates coarse.)
Sample No.: montmor.1
Owner: JHU
Wavelength Range: IR
Origin: San Diego, California via Clay Mineral Society, Source Clay
Description: The sample was a tan, earthy clay. The bulk sample
Measurement: Bidirectional reflectance
X Units: Wavelength (micrometers)
Y Units: Reflectance (percent)
wavelength	value
25.0442	7.978
24.3388	8.2737
23.6719	8.7417
23.0407	8.9448
22.4422	9.2451
21.8741	9.7177
21.334	10.8955
20.8199	10.9153
20.33	8.6675
19.8627	8.1033
19.4163	9.2536
18.9896	10.5229
18.5812	10.4087
18.19	9.946
17.815	9.3103
17.4551	8.615
17.1094	7.8655
16.7772	6.845
16.4576	5.8027
16.15	5.1257
15.8537	4.5945
15.568	3.5688
15.2925	3.2493
15.0265	3.1741
14.7697	3.2126
14.5214	3.3345
14.2814	3.3809
14.0492	3.4277
13.8244	3.5337
13.6067	3.6611
13.3957	3.8183
13.1912	3.9729
12.9929	4.1033
12.8004	4.1435
12.6135	4.2234
12.432	4.3345
12.2557	4.4558
12.0843	4.5459
11.9176	4.4387
11.7555	4.437
11.5977	4.5947
11.444	4.7612
11.2944	4.8799
11.1487	5.0464
11.0067	5.1523
10.8682	5.0393
10.7332	5.1308
10.6015	5.404
10.473	5.74
10.3476	6.1509
10.2251	6.656
10.1056	7.196
9.98873	7.8159
9.87458	8.5222
9.763	9.4665
9.65392	10.7636
9.54724	12.3354
9.44291	13.7971
9.34082	14.3867
9.24091	13.3647
9.14312	11.4382
9.04739	10.3098
8.95363	10.4763
8.8618	10.7136
8.77183	10.5847
8.68368	10.1787
8.59727	9.5105
8.51257	8.591
8.42951	7.2063
8.34807	4.852
8.26819	2.3171
8.18981	1.1233
8.11292	1.0908
8.03745	1.3689
7.96337	1.7026
7.89064	2.0185
7.81924	2.3513
7.74911	2.6421
7.68023	2.9133
7.61256	3.158
7.54608	3.3725
7.48074	3.5615
7.41653	3.729
7.35341	3.8955
7.29136	4.0395
7.23034	4.1916
7.17033	4.3098
7.11132	4.435
7.05327	4.4922
6.99616	4.5945
6.93996	4.7126
6.88467	4.813
6.83024	4.9123
6.77667	4.9993
6.72393	5.1035
6.67201	5.1748
6.62089	5.2417
6.57054	5.2456
6.52095	5.2671
6.4721	5.2363
6.42398	5.156
6.37657	5.0244
6.32986	4.7866
6.28382	4.4077
6.23845	3.8484
6.19373	3.2886
6.14965	2.8997
6.10619	2.6597
6.06334	2.6289
6.02109	2.7624
5.97942	2.9836
5.93832	3.2886
5.89778	3.7666
5.8578	4.3245
5.81835	4.8003
5.77943	5.2388
5.74103	5.6235
5.70314	5.907
5.66574	6.081
5.62883	6.1562
5.5924	6.156
5.55644	6.0886
5.52093	5.9971
5.48588	5.9316
5.45127	5.9582
5.41709	6.0627
5.38334	6.237
5.35	6.4001
5.31708	6.5615
5.28456	6.6621
5.25243	6.7292
5.2207	6.7878
5.18934	6.8606
5.15836	6.9482
5.12775	7.0696
5.09749	7.1975
5.0676	7.3591
5.03805	7.521
5.00884	7.6748
4.97998	7.8042
4.95144	7.9328
4.92322	8.0317
4.89533	8.1257
4.86775	8.2136
4.84048	8.2827
4.81351	8.3491
4.78684	8.4404
4.76047	8.5112
4.73439	8.5803
4.70859	8.6484
4.68306	8.7112
4.65782	8.7646
4.63284	8.8188
4.60814	8.8642
4.58369	8.8987
4.5595	8.9153
4.53557	8.9328
4.51188	8.9546
4.48845	8.9841
4.46525	9.0034
4.44229	9.0312
4.41957	9.062
4.39708	9.0888
4.37481	9.1352
4.35277	9.1755
4.33096	9.228
4.30935	9.291
4.28797	9.3686
4.26679	9.4819
4.24583	9.582
4.22506	9.6989
4.2045	9.8259
4.18414	9.969
4.16398	10.1167
4.14401	10.2688
4.12423	10.4255
4.10464	10.582
4.08523	10.7627
4.066	10.9294
4.04696	11.0842
4.02809	11.238
4.0094	11.3952
3.99088	11.52
3.97253	11.6186
3.95435	11.7129
3.93634	11.7846
3.91848	11.8322
3.90079	11.8816
3.88326	11.882
3.86589	11.8808
3.84867	11.862
3.8316	11.8195
3.81468	11.7663
3.79791	11.6965
3.78129	11.6169
3.76482	11.5041
3.74848	11.3823
3.73229	11.2556
3.71624	11.0971
3.70032	10.948
3.68454	10.8117
3.6689	10.6518
3.65338	10.4948
3.638	10.3098
3.62275	10.1245
3.60762	9.9355
3.59262	9.7236
3.57775	9.5063
3.56299	9.2722
3.54836	9.0368
3.53385	8.8039
3.51945	8.5495
3.50517	8.3034
3.49101	8.1008
3.47696	7.8569
3.46303	7.6054
3.4492	7.3364
3.43549	7.0967
3.42188	6.8347
3.40838	6.6223
3.39499	6.3828
3.38171	6.1611
3.36852	5.9433
3.35544	5.7146
3.34246	5.488
3.32958	5.2688
3.3168	5.0586
3.30411	4.8535
3.29153	4.6614
3.27903	4.4748
3.26664	4.292
3.25433	4.1123
3.24212	3.9421
3.23	3.7903
3.21797	3.6321
3.20603	3.4988
3.19418	3.3462
3.18241	3.2371
3.17074	3.1091
3.15914	3.0093
3.14763	2.8906
3.13621	2.8086
3.12487	2.709
3.11361	2.6267
3.10243	2.573
3.09133	2.5281
3.0803	2.4841
3.06936	2.4548
3.0585	2.4331
3.04771	2.4226
3.037	2.3955
3.02636	2.3589
3.0158	2.3335
3.00531	2.2895
2.99489	2.2495
2.98454	2.2288
2.97427	2.1877
2.96407	2.1638
2.95393	2.1194
2.94387	2.093
2.93387	2.0767
2.92394	2.0664
2.91408	2.0706
2.90429	2.0547
2.89456	2.0232
2.88489	2.0256
2.87529	1.9868
2.86576	1.9932
2.85628	1.9697
2.84687	1.9499
2.83752	1.9441
2.82823	1.9231
2.81901	1.918
2.80984	1.895
2.80073	1.8696
2.79168	1.7839
2.78269	1.7507
2.77376	1.6768
2.76488	1.5859
2.75606	1.5269
2.7473	1.562
2.73859	1.6208
2.72994	1.7422
2.72134	2.0247
2.7128	2.5813
2.70431	3.3975
2.69587	4.4895
2.68748	5.6448
2.67915	6.4751
2.67087	7.0976
2.66264	7.6355
2.65446	8.0134
2.64633	8.3264
2.63825	8.5766
2.63021	8.7553
2.62223	8.9328
2.6143	9.062
2.60641	9.1599
2.59857	9.2634
2.59078	9.343
2.58304	9.3806
2.57534	9.4472
2.56768	9.4692
2.56008	9.5127
2.55251	9.562
2.54499	9.6308
2.53752	9.6665
2.53009	9.7358
2.5227	9.8296
2.51536	9.915
2.50806	10.0527
2.5008	10.1767
2.49358	10.2798
2.4864	10.3596
2.47927	10.4277
2.47218	10.4953
2.46512	10.5029
2.45811	10.5383
2.45114	10.6181
2.4442	10.6728
2.43731	10.771
2.43045	10.9284
2.42363	10.9946
2.41685	11.0962
2.41011	11.1779
2.40341	11.2558
2.39674	11.3252
2.39011	11.4587
2.38352	11.6089
2.37696	11.7661
2.37044	11.9253
2.36395	12.0881
2.35751	12.2534
2.35109	12.4048
2.34471	12.5503
2.33836	12.6704
2.33205	12.8296
2.32578	12.9946
2.31953	13.1762
2.31332	13.4008
2.30714	13.6425
2.301	13.8051
2.29489	14.0258
2.28881	14.2099
2.28276	14.3095
2.27675	14.416
2.27076	14.395
2.26481	14.3222
2.25889	14.0962
2.253	13.8169
2.24714	13.5383
2.24131	13.2783
2.23551	13.0412
2.22974	12.8195
2.224	12.5908
2.21829	12.2822
2.21261	12.2702
2.20696	12.7177
2.20134	13.3933
2.19574	14.113
2.19018	14.5952
2.18464	14.9726
2.17913	15.2258
2.17365	15.4201
2.16819	15.5681
2.16277	15.6928
2.15737	15.6962
2.15199	15.7365
2.14665	15.6848
2.14133	15.7287
2.13603	15.7766
2.13077	15.7546
2.12552	15.7241
2.12031	15.7448
2.11512	15.7212
2.10995	15.7421
2.10481	15.7365
2.0997	15.7268
2.09461	15.7915
2.08954	15.7895
2.0845	15.757
2.07948	15.7885
