Name: Heulandite (Na,Ca)2-3Al3(Al,Si)2Si13O36.12H2O
Type: Mineral
Class: Silicates
Subclass: Tectosilicates (Zeolite Group)
Particle Size: Coarse  (74-250 micrometers)
Sample No.: heulan.2
Owner: JHU
Wavelength Range: IR
Origin: Gobel, Oregon via Joe Taggart, USGS, Denver, Colorado.
Description: The sample is composed of 1 cm diameter, pearly,
Measurement: Bidirectional reflectance
X Units: Wavelength (micrometers)
Y Units: Reflectance (percent)
wavelength	value
25.0442	3.4434
24.3388	3.5349
23.6719	3.47
23.0407	3.7786
22.4422	4.6045
21.8741	5.4851
21.334	6.4358
20.8199	6.331
20.33	4.8828
19.8627	3.2544
19.4163	2.352
18.9896	2.1692
18.5812	1.5229
18.19	1.1758
17.815	1.1941
17.4551	1.2656
17.1094	1.3342
16.7772	1.4233
16.4576	1.4231
16.15	1.3127
15.8537	1.1597
15.568	1.062
15.2925	1.0813
15.0265	1.1494
14.7697	1.1904
14.5214	1.2388
14.2814	1.2974
14.0492	1.3394
13.8244	1.3249
13.6067	1.2627
13.3957	1.2087
13.1912	1.2126
12.9929	1.2451
12.8004	1.2634
12.6135	1.2483
12.432	1.2703
12.2557	1.3831
12.0843	1.5364
11.9176	1.6709
11.7555	1.7812
11.5977	1.8953
11.444	1.9844
11.2944	2.0923
11.1487	2.2107
11.0067	2.3435
10.8682	2.4932
10.7332	2.6394
10.6015	2.8296
10.473	3.1094
10.3476	3.4726
10.2251	3.8437
10.1056	4.2258
9.98873	4.6186
9.87458	4.9165
9.763	5.0593
9.65392	5.1753
9.54724	5.4558
9.44291	5.9695
9.34082	6.5202
9.24091	6.5535
9.14312	6.1721
9.04739	5.7048
8.95363	5.2912
8.8618	4.9736
8.77183	4.7322
8.68368	4.4707
8.59727	4.2209
8.51257	4.1579
8.42951	4.1868
8.34807	4.0959
8.26819	3.7668
8.18981	3.2097
8.11292	2.1936
8.03745	1.1055
7.96337	0.406
7.89064	0.1433
7.81924	0.1238
7.74911	0.1763
7.68023	0.2451
7.61256	0.3166
7.54608	0.3879
7.48074	0.4578
7.41653	0.5237
7.35341	0.5859
7.29136	0.6436
7.23034	0.6943
7.17033	0.7407
7.11132	0.7869
7.05327	0.8247
6.99616	0.863
6.93996	0.8987
6.88467	0.9307
6.83024	0.9631
6.77667	0.988
6.72393	1.0124
6.67201	1.0295
6.62089	1.0413
6.57054	1.0508
6.52095	1.0627
6.4721	1.0649
6.42398	1.0571
6.37657	1.0488
6.32986	1.0198
6.28382	0.9834
6.23845	0.946
6.19373	0.9077
6.14965	0.8403
6.10619	0.7432
6.06334	0.6924
6.02109	0.7131
5.97942	0.7644
5.93832	0.8469
5.89778	0.9663
5.8578	1.115
5.81835	1.251
5.77943	1.3713
5.74103	1.4629
5.70314	1.5271
5.66574	1.5784
5.62883	1.6179
5.5924	1.6577
5.55644	1.7009
5.52093	1.7539
5.48588	1.8203
5.45127	1.9031
5.41709	1.9873
5.38334	2.0708
5.35	2.1321
5.31708	2.1853
5.28456	2.2197
5.25243	2.2534
5.2207	2.2864
5.18934	2.3271
5.15836	2.3787
5.12775	2.4502
5.09749	2.54
5.0676	2.6396
5.03805	2.7402
5.00884	2.8279
4.97998	2.8999
4.95144	2.9512
4.92322	2.9805
4.89533	2.9963
4.86775	2.9995
4.84048	2.9954
4.81351	2.9893
4.78684	2.9858
4.76047	2.9853
4.73439	2.9858
4.70859	2.9846
4.68306	2.9812
4.65782	2.98
4.63284	2.9819
4.60814	2.9897
4.58369	3.009
4.5595	3.0393
4.53557	3.0835
4.51188	3.1426
4.48845	3.2156
4.46525	3.3057
4.44229	3.4145
4.41957	3.5413
4.39708	3.6872
4.37481	3.8486
4.35277	4.0242
4.33096	4.2119
4.30935	4.4092
4.28797	4.6111
4.26679	4.8164
4.24583	5.019
4.22506	5.2222
4.2045	5.4145
4.18414	5.6023
4.16398	5.782
4.14401	5.9524
4.12423	6.114
4.10464	6.2671
4.08523	6.4104
4.066	6.5412
4.04696	6.6518
4.02809	6.7419
4.0094	6.8113
3.99088	6.8613
3.97253	6.8967
3.95435	6.9184
3.93634	6.9231
3.91848	6.9116
3.90079	6.8801
3.88326	6.8323
3.86589	6.7654
3.84867	6.6828
3.8316	6.5835
3.81468	6.4687
3.79791	6.344
3.78129	6.207
3.76482	6.0622
3.74848	5.9082
3.73229	5.7471
3.71624	5.5784
3.70032	5.4026
3.68454	5.2202
3.6689	5.0349
3.65338	4.8481
3.638	4.6594
3.62275	4.4709
3.60762	4.2834
3.59262	4.0976
3.57775	3.9145
3.56299	3.7358
3.54836	3.5625
3.53385	3.3933
3.51945	3.2288
3.50517	3.0686
3.49101	2.9126
3.47696	2.7649
3.46303	2.6238
3.4492	2.4905
3.43549	2.3655
3.42188	2.2478
3.40838	2.1379
3.39499	2.0361
3.38171	1.9434
3.36852	1.8601
3.35544	1.7847
3.34246	1.7168
3.32958	1.6545
3.3168	1.5996
3.30411	1.5503
3.29153	1.5049
3.27903	1.4661
3.26664	1.4292
3.25433	1.3962
3.24212	1.3682
3.23	1.342
3.21797	1.3186
3.20603	1.2974
3.19418	1.2786
3.18241	1.261
3.17074	1.2444
3.15914	1.2275
3.14763	1.2122
3.13621	1.1978
3.12487	1.1831
3.11361	1.1702
3.10243	1.1592
3.09133	1.1511
3.0803	1.1453
3.06936	1.1406
3.0585	1.1365
3.04771	1.1318
3.037	1.1257
3.02636	1.1208
3.0158	1.1155
3.00531	1.1091
2.99489	1.1018
2.98454	1.0945
2.97427	1.0864
2.96407	1.0791
2.95393	1.0725
2.94387	1.0659
2.93387	1.0605
2.92394	1.0542
2.91408	1.0491
2.90429	1.0444
2.89456	1.04
2.88489	1.0364
2.87529	1.032
2.86576	1.0273
2.85628	1.0239
2.84687	1.019
2.83752	1.0151
2.82823	1.0122
2.81901	1.009
2.80984	1.0071
2.80073	1.0034
2.79168	1.0012
2.78269	0.9958
2.77376	0.9888
2.76488	0.9802
2.75606	0.9734
2.7473	0.9866
2.73859	1.0134
2.72994	1.0923
2.72134	1.2107
2.7128	1.3896
2.70431	1.6045
2.69587	1.8284
2.68748	2.0671
2.67915	2.2886
2.67087	2.4932
2.66264	2.7075
2.65446	2.8982
2.64633	3.0657
2.63825	3.2129
2.63021	3.3193
2.62223	3.4311
2.6143	3.521
2.60641	3.5759
2.59857	3.6372
2.59078	3.6829
2.58304	3.7212
2.57534	3.759
2.56768	3.7983
2.56008	3.8354
2.55251	3.8889
2.54499	3.9438
2.53752	4.0095
2.53009	4.0828
2.5227	4.1643
2.51536	4.2527
2.50806	4.3494
2.5008	4.4499
2.49358	4.5532
2.4864	4.6548
2.47927	4.7532
2.47218	4.8469
2.46512	4.9382
2.45811	5.0359
2.45114	5.1418
2.4442	5.2654
2.43731	5.4101
2.43045	5.5766
2.42363	5.771
2.41685	5.9875
2.41011	6.2287
2.40341	6.4914
2.39674	6.7724
2.39011	7.0693
2.38352	7.3794
2.37696	7.6985
2.37044	8.0256
2.36395	8.355
2.35751	8.6811
2.35109	8.9927
2.34471	9.2866
2.33836	9.5591
2.33205	9.8083
2.32578	10.0354
2.31953	10.2434
2.31332	10.4292
2.30714	10.5957
2.301	10.7456
2.29489	10.8772
2.28881	11.0005
2.28276	11.1108
2.27675	11.2116
2.27076	11.2986
2.26481	11.3808
2.25889	11.4487
2.253	11.5058
2.24714	11.552
2.24131	11.5849
2.23551	11.6052
2.22974	11.6174
2.224	11.6198
2.21829	11.6179
2.21261	11.6086
2.20696	11.5935
2.20134	11.5766
2.19574	11.5554
2.19018	11.5266
2.18464	11.5036
2.17913	11.4734
2.17365	11.4446
2.16819	11.4079
2.16277	11.3703
2.15737	11.3276
2.15199	11.2876
2.14665	11.2451
2.14133	11.196
2.13603	11.1496
2.13077	11.1028
2.12552	11.0476
2.12031	10.9948
2.11512	10.935
2.10995	10.875
2.10481	10.8125
2.0997	10.7519
2.09461	10.6909
2.08954	10.636
2.0845	10.5783
2.07948	10.5273
