Name: Jadeite Na(Al,Fe+3)Si2O6
Type: Mineral
Class: Silicates
Subclass: Inosilicates (Chain Silicates); (Pyroxene Group)
Particle Size: Fine  (0-74  Micrometers)
Sample No.: jadeite.1
Owner: JHU
Wavelength Range: IR
Origin: Tibet, China via the Smithsonian (sample no. NMNH B18463).
Description: The sample was a single 1 cm x 4 cm piece weighing 11.5
Measurement: Bidirectional reflectance
X Units: Wavelength (micrometers)
Y Units: Reflectance (percent)
wavelength	value
25.0442	3.2158
24.3388	2.8618
23.6719	2.9394
23.0407	3.0869
22.4422	2.8599
21.8741	3.4253
21.334	3.7197
20.8199	3.9768
20.33	3.6626
19.8627	3.7305
19.4163	3.8945
18.9896	3.9033
18.5812	4.0137
18.19	3.5063
17.815	3.4863
17.4551	3.7197
17.1094	4.0781
16.7772	3.9094
16.4576	3.7141
16.15	3.4892
15.8537	3.3608
15.568	2.0242
15.2925	1.3369
15.0265	1.4595
14.7697	1.6277
14.5214	1.8113
14.2814	2.2705
14.0492	2.646
13.8244	2.9075
13.6067	2.7461
13.3957	2.0732
13.1912	2.8191
12.9929	3.3418
12.8004	3.5539
12.6135	3.5981
12.432	3.364
12.2557	3.1016
12.0843	2.7153
11.9176	2.3496
11.7555	2.0925
11.5977	1.9385
11.444	2.0454
11.2944	2.2581
11.1487	2.3823
11.0067	2.4624
10.8682	2.5508
10.7332	2.6033
10.6015	2.665
10.473	2.7234
10.3476	2.739
10.2251	2.5564
10.1056	2.573
9.98873	2.6912
9.87458	2.8035
9.763	2.9136
9.65392	3.0647
9.54724	3.3538
9.44291	3.4292
9.34082	4.0381
9.24091	4.1846
9.14312	4.3391
9.04739	4.428
8.95363	4.1516
8.8618	3.9531
8.77183	3.9575
8.68368	4.2358
8.59727	4.6882
8.51257	5.2947
8.42951	5.4258
8.34807	4.8994
8.26819	4.0137
8.18981	3.0957
8.11292	2.4185
8.03745	2.0847
7.96337	2.1255
7.89064	2.5364
7.81924	2.9578
7.74911	3.4075
7.68023	3.9272
7.61256	4.2983
7.54608	4.5852
7.48074	4.9531
7.41653	5.3491
7.35341	5.7331
7.29136	5.9529
7.23034	6.0908
7.17033	6.1367
7.11132	6.2131
7.05327	6.3418
6.99616	6.7031
6.93996	7.0085
6.88467	7.4585
6.83024	7.8374
6.77667	8.1096
6.72393	8.2219
6.67201	8.2016
6.62089	8.1286
6.57054	7.935
6.52095	7.8835
6.4721	8.0613
6.42398	8.0671
6.37657	8.0718
6.32986	8.3069
6.28382	8.5403
6.23845	8.7009
6.19373	8.6465
6.14965	8.061
6.10619	7.9194
6.06334	7.896
6.02109	7.5786
5.97942	7.7104
5.93832	8.2009
5.89778	8.5066
5.8578	8.499
5.81835	8.1772
5.77943	7.3674
5.74103	6.6186
5.70314	6.508
5.66574	6.6411
5.62883	6.834
5.5924	6.926
5.55644	7.2549
5.52093	7.4197
5.48588	7.2883
5.45127	7.5715
5.41709	8.6836
5.38334	9.8728
5.35	10.5363
5.31708	10.9553
5.28456	10.9863
5.25243	10.9743
5.2207	11.1572
5.18934	11.425
5.15836	11.6054
5.12775	11.4824
5.09749	11.3869
5.0676	11.5749
5.03805	11.5749
5.00884	11.5278
4.97998	11.4387
4.95144	11.458
4.92322	11.5486
4.89533	11.9597
4.86775	12.6687
4.84048	13.1455
4.81351	13.2387
4.78684	13.2636
4.76047	13.7146
4.73439	14.3498
4.70859	14.5503
4.68306	14.5329
4.65782	14.4304
4.63284	14.4287
4.60814	14.812
4.58369	15.4152
4.5595	16.321
4.53557	17.2285
4.51188	18.0251
4.48845	18.5976
4.46525	18.936
4.44229	19.1586
4.41957	19.405
4.39708	19.601
4.37481	19.7141
4.35277	19.7773
4.33096	19.8359
4.30935	19.8752
4.28797	19.9274
4.26679	19.9658
4.24583	19.9946
4.22506	20.0085
4.2045	20.0268
4.18414	20.0314
4.16398	20.0554
4.14401	20.0346
4.12423	20.0317
4.10464	20.0561
4.08523	20.0761
4.066	20.0754
4.04696	20.0866
4.02809	20.0925
4.0094	20.0839
3.99088	20.1237
3.97253	20.1679
3.95435	20.205
3.93634	20.2558
3.91848	20.3124
3.90079	20.3403
3.88326	20.3527
3.86589	20.3569
3.84867	20.3715
3.8316	20.3986
3.81468	20.4167
3.79791	20.4011
3.78129	20.4072
3.76482	20.4025
3.74848	20.3815
3.73229	20.3381
3.71624	20.2941
3.70032	20.269
3.68454	20.2297
3.6689	20.196
3.65338	20.1655
3.638	20.1381
3.62275	20.1188
3.60762	20.0749
3.59262	20.0373
3.57775	19.9882
3.56299	19.9243
3.54836	19.8522
3.53385	19.7495
3.51945	19.5397
3.50517	18.9497
3.49101	19.0407
3.47696	19.1298
3.46303	19.1237
3.4492	18.9709
3.43549	18.6789
3.42188	18.0629
3.40838	18.0732
3.39499	18.5422
3.38171	18.5905
3.36852	18.6796
3.35544	18.9262
3.34246	18.996
3.32958	18.9797
3.3168	18.9316
3.30411	18.8637
3.29153	18.8032
3.27903	18.7104
3.26664	18.6281
3.25433	18.5068
3.24212	18.4511
3.23	18.3447
3.21797	18.2373
3.20603	18.1372
3.19418	18.0229
3.18241	17.8715
3.17074	17.7285
3.15914	17.5664
3.14763	17.4077
3.13621	17.2902
3.12487	17.2607
3.11361	17.177
3.10243	17.0825
3.09133	16.9868
3.0803	16.9126
3.06936	16.8144
3.0585	16.7097
3.04771	16.6084
3.037	16.456
3.02636	16.196
3.0158	15.8339
3.00531	15.7016
2.99489	15.8488
2.98454	15.9878
2.97427	16.0017
2.96407	15.9736
2.95393	15.892
2.94387	15.7876
2.93387	15.7045
2.92394	15.6425
2.91408	15.5175
2.90429	15.3921
2.89456	15.2851
2.88489	15.1298
2.87529	15.018
2.86576	14.934
2.85628	14.843
2.84687	14.5793
2.83752	14.0869
2.82823	13.5131
2.81901	13.4775
2.80984	13.957
2.80073	14.4638
2.79168	14.7067
2.78269	14.6801
2.77376	14.5459
2.76488	14.4514
2.75606	15.0979
2.7473	16.4621
2.73859	17.7919
2.72994	18.6352
2.72134	19.1086
2.7128	19.6455
2.70431	20.0546
2.69587	20.5952
2.68748	21.0253
2.67915	21.2851
2.67087	21.3496
2.66264	21.4885
2.65446	21.5722
2.64633	21.6047
2.63825	21.6083
2.63021	21.5864
2.62223	21.6518
2.6143	21.6809
2.60641	21.6225
2.59857	21.6679
2.59078	21.6689
2.58304	21.6086
2.57534	21.632
2.56768	21.6242
2.56008	21.5656
2.55251	21.5517
2.54499	21.5078
2.53752	21.5361
2.53009	21.4868
2.5227	21.54
2.51536	21.5439
2.50806	21.5468
2.5008	21.5434
2.49358	21.5102
2.4864	21.5283
2.47927	21.538
2.47218	21.5405
2.46512	21.5214
2.45811	21.5588
2.45114	21.5773
2.4442	21.5764
2.43731	21.583
2.43045	21.6074
2.42363	21.6132
2.41685	21.6503
2.41011	21.6909
2.40341	21.6264
2.39674	21.5976
2.39011	21.562
2.38352	21.6318
2.37696	21.5976
2.37044	21.6411
2.36395	21.5825
2.35751	21.602
2.35109	21.5414
2.34471	21.5458
2.33836	21.5078
2.33205	21.4711
2.32578	21.4921
2.31953	21.5068
2.31332	21.458
2.30714	21.4833
2.301	21.4589
2.29489	21.4482
2.28881	21.4169
2.28276	21.4072
2.27675	21.4223
2.27076	21.3857
2.26481	21.4189
2.25889	21.4243
2.253	21.3476
2.24714	21.3129
2.24131	21.3564
2.23551	21.4169
2.22974	21.3535
2.224	21.3691
2.21829	21.3925
2.21261	21.3774
2.20696	21.3261
2.20134	21.3305
2.19574	21.2973
2.19018	21.3461
2.18464	21.33
2.17913	21.3398
2.17365	21.311
2.16819	21.3994
2.16277	21.4033
2.15737	21.4062
2.15199	21.3344
2.14665	21.3242
2.14133	21.3359
2.13603	21.4262
2.13077	21.4062
2.12552	21.3984
2.12031	21.3847
2.11512	21.457
2.10995	21.3852
2.10481	21.3701
2.0997	21.4067
2.09461	21.5082
2.08954	21.5517
2.0845	21.5273
2.07948	21.5102
