Name: Andradite Ca3Fe2+3 (SiO4)3
Type: Mineral
Class: Silicates
Subclass: Nesosilicates  (Isolated tetrahedra) (Garnet Group)
Particle Size: Fine (less than 2 micrometers)
Sample No.: andradite.1
Owner: JHU
Wavelength Range: IR
Origin: Sample from Rimpfischwange, Zermatt, Valais, Switzerland,
Description: A cluster of subhedral green crystals, some coated with a
Measurement: Transmission
X Units: Wavelength (micrometers)
Y Units: Transmittance (percent)
wavelength	value
25.044	42.4374
24.339	58.5389
23.672	74.9998
23.041	42.7108
22.442	49.8846
21.874	69.1717
21.334	72.2518
20.82	55.9315
20.33	73.6561
19.863	57.2118
19.416	44.9921
18.99	65.45
18.581	76.7498
18.19	79.118
17.815	80.8201
17.455	79.867
17.109	77.7674
16.777	77.9021
16.458	78.3084
16.15	77.324
15.854	77.7478
15.568	77.4559
15.292	78.868
15.027	79.2518
14.77	78.6424
14.521	78.5613
14.281	78.6365
14.049	78.5105
13.824	78.3943
13.607	78.5042
13.396	79.2952
13.191	78.5525
12.993	76.3812
12.8	71.3812
12.614	61.658
12.432	46.3554
12.256	30.9374
12.084	27.1313
11.918	21.6894
11.755	36.1288
11.598	54.7836
11.444	43.2308
11.294	17.4609
11.149	19.4731
11.007	27.7324
10.868	32.2758
10.733	33.85
10.602	41.1249
10.473	52.5423
10.348	59.6527
10.225	62.764
10.106	63.7801
9.989	64.37
9.875	65.3304
9.763	65.8851
9.654	66.7972
9.547	69.0843
9.443	71.367
9.341	73.3065
9.241	74.9402
9.143	76.5281
9.047	78.2478
8.954	80.0086
8.862	81.6311
8.772	83.1311
8.684	84.8924
8.597	86.8303
8.513	88.9011
8.43	90.8972
8.348	92.5173
8.268	93.8613
8.19	94.7949
8.113	95.4141
8.037	95.8494
7.963	96.2981
7.891	96.5303
7.819	96.5896
7.749	96.6433
7.68	96.54
7.613	96.8445
7.546	96.9373
7.481	96.9394
7.417	96.833
7.353	96.7334
7.291	96.7478
7.23	96.9297
7.17	97.2273
7.111	97.1973
7.053	97.1289
6.996	97.3435
6.94	97.8076
6.885	97.7273
6.83	97.5225
6.777	97.7451
6.724	97.8135
6.672	97.9187
6.621	97.835
6.571	97.946
6.521	97.8691
6.472	97.6931
6.424	97.4834
6.377	97.2331
6.33	96.75
6.284	96.3984
6.238	96.0449
6.194	95.3669
6.15	94.4707
6.106	94.1677
6.063	94.4607
6.021	95.7168
5.979	97.1553
5.938	97.1492
5.898	97.1794
5.858	97.4424
5.818	97.6768
5.779	97.8359
5.741	97.9968
5.703	97.9844
5.666	98.0146
5.629	97.9736
5.592	97.9141
5.556	97.8606
5.521	97.8572
5.486	97.9255
5.451	97.9521
5.417	97.9961
5.383	97.9812
5.35	97.9756
5.317	98.0027
5.285	97.9285
5.252	97.8662
5.221	97.8865
5.189	97.7998
5.158	97.7273
5.128	97.7068
5.097	97.6423
5.068	97.5935
5.038	97.6077
5.009	97.5427
4.98	97.4514
4.951	97.4099
4.923	97.3513
4.895	97.2849
4.868	97.2795
4.84	97.2732
4.814	97.1882
4.787	97.1194
4.76	97.116
4.734	97.05
4.709	97.0569
4.683	96.9905
4.658	96.948
4.633	96.9207
4.608	96.9944
4.584	96.8352
4.56	96.8738
4.536	96.739
4.512	96.6213
4.488	96.6106
4.465	96.5525
4.442	96.4685
4.42	96.4255
4.397	96.3406
4.375	96.322
4.353	96.2253
4.331	96.2195
4.309	96.1467
4.288	96.1267
4.267	95.9285
4.246	95.9275
4.225	95.9001
4.205	95.7546
4.184	95.8127
4.164	95.6794
4.144	95.5706
4.124	95.5427
4.105	95.5027
4.085	95.448
4.066	95.3621
4.047	95.2683
4.028	95.2019
4.009	95.2214
3.991	95.1228
3.973	95.0164
3.954	95.0046
3.936	94.9158
3.918	94.8669
3.901	94.7952
3.883	94.7498
3.866	94.6335
3.849	94.6101
3.832	94.5349
3.815	94.4138
3.798	94.3167
3.781	94.3533
3.765	94.1277
3.748	94.0095
3.732	93.8816
3.716	93.9002
3.7	93.6482
3.685	93.6648
3.669	93.471
3.653	93.3245
3.638	93.3503
3.623	93.0828
3.608	93.0007
3.593	92.9216
3.578	92.7888
3.563	92.635
3.548	92.3967
3.534	92.1746
3.519	91.7752
3.505	91.3103
3.491	91.3201
3.477	91.1467
3.463	91.0061
3.449	90.7185
3.435	90.4002
3.422	89.9065
3.408	89.9319
3.395	90.1912
3.382	90.1389
3.369	90.4417
3.355	90.4685
3.342	90.3728
3.33	90.322
3.317	90.1038
3.304	89.9939
3.292	89.8245
3.279	89.5955
3.267	89.4046
3.254	89.2107
3.242	89.0623
3.23	88.7791
3.218	88.657
3.206	88.3513
3.194	88.1707
3.182	87.9422
3.171	87.6287
3.159	87.4373
3.148	86.9597
3.136	86.6912
3.125	86.3416
3.114	85.9929
3.102	85.4744
3.091	84.9607
3.08	84.6053
3.069	84.2361
3.058	83.7566
3.048	83.5437
3.037	83.1414
3.026	82.8719
3.016	82.2908
3.005	81.7586
2.995	81.0916
2.985	80.4539
2.974	79.6658
2.964	78.8523
2.954	78.2898
2.944	77.7244
2.934	77.2576
2.924	77.0437
2.914	76.9773
2.904	77.0408
2.895	77.2742
2.885	77.3787
2.875	77.4852
2.866	77.8289
2.856	78.2068
2.847	78.7039
2.838	79.3172
2.828	79.9959
2.819	80.8601
2.81	81.4383
2.801	82.3201
2.792	83.1404
2.783	84.1385
2.774	84.8377
2.765	85.8201
2.756	86.7752
2.747	87.6463
2.739	88.1541
2.73	88.5193
2.721	88.8406
2.713	89.0349
2.704	89.1961
2.696	89.532
2.687	89.6414
2.679	89.656
2.671	89.5076
2.663	89.4451
2.654	89.449
2.646	89.3709
2.638	89.4216
2.63	89.1131
2.622	89.1834
2.614	89.1306
2.606	89.0486
2.599	89.2009
2.591	88.8416
2.583	88.8416
2.575	88.6736
2.568	88.7049
2.56	88.7732
2.553	88.5213
2.545	88.4881
2.538	88.4724
2.53	88.3006
2.523	88.1228
2.515	88.2107
2.508	88.2224
2.501	88.158
2.494	87.9881
2.486	87.9841
2.479	87.9412
2.472	87.8904
2.465	87.8201
2.458	87.7342
2.451	87.7361
2.444	87.4842
2.437	87.5779
2.43	87.5408
2.424	87.3084
2.417	87.3943
2.41	87.531
2.403	87.3435
2.397	86.9138
2.39	86.8064
2.384	86.9783
2.377	86.992
2.37	86.7674
2.364	86.8435
2.358	86.6814
2.351	86.5232
2.345	86.5388
2.338	86.3142
2.332	86.199
2.326	86.2908
2.32	86.2342
2.313	86.158
2.307	86.3201
2.301	85.8748
2.295	86.1873
2.289	85.947
2.283	85.9217
2.277	85.572
2.271	85.4158
2.265	86.1345
2.259	85.3689
2.253	85.4705
2.247	85.4646
2.241	85.4217
2.236	85.3357
2.23	85.2732
2.224	85.0154
2.218	85.0545
2.213	84.7967
2.207	85.1287
2.201	84.7654
2.196	84.8631
2.19	84.4842
2.185	85.0154
2.179	84.1873
2.174	84.7849
2.168	84.699
2.163	84.5935
2.157	84.117
2.152	84.2732
2.147	83.8631
2.141	83.5818
2.136	84.0232
2.131	83.8826
2.126	83.8474
2.12	83.8318
2.115	83.2068
2.11	83.3592
2.105	83.6092
2.1	83.2654
2.095	83.867
2.09	83.0232
2.085	83.367
2.079	83.0506
