Name: Olivine (Fo92) (Fe+2,Mg)2SiO4
Type: Mineral
Class: Silicates
Subclass: Nesosilicates (Isolated tetrahedra); (Olivine Group)
Particle Size: Solid
Sample No.: olivine.11
Owner: JHU
Wavelength Range: IR
Origin: Chavira olivine-peridot mine, near Camargo, Chihuahua,
Description: Sample consisted of many 0.5 cm particles, green in
Measurement: Bidirectional reflectance
X Units: Wavelength (micrometers)
Y Units: Reflectance (percent)
wavelength	value
25.0442	22.5058
24.3388	29.6586
23.6719	33.5981
23.0407	30.6708
22.4422	28.7255
21.8741	17.1367
21.334	14.0996
20.8199	13.4594
20.33	15.8718
19.8627	25.0048
19.4163	29.8798
18.9896	32.5424
18.5812	27.1376
18.19	24.9243
17.815	21.1022
17.4551	16.9924
17.1094	13.9214
16.7772	13.2915
16.4576	14.8935
16.15	16.3537
15.8537	16.3852
15.568	14.361
15.2925	10.1142
15.0265	7.5625
14.7697	7.3647
14.5214	7.7317
14.2814	8.0859
14.0492	8.4643
13.8244	8.8716
13.6067	9.24
13.3957	9.6411
13.1912	10.0129
12.9929	10.4018
12.8004	10.8091
12.6135	11.2265
12.432	11.7133
12.2557	12.2968
12.0843	13.0283
11.9176	13.9497
11.7555	15.0295
11.5977	16.7041
11.444	21.1645
11.2944	24.0815
11.1487	24.8119
11.0067	25.259
10.8682	25.9086
10.7332	26.8222
10.6015	27.7316
10.473	29.7236
10.3476	23.6352
10.2251	28.6501
10.1056	25.6638
9.98873	23.9604
9.87458	25.0973
9.763	24.2167
9.65392	20.8769
9.54724	19.8625
9.44291	19.2197
9.34082	18.2956
9.24091	15.1508
9.14312	11.6804
9.04739	8.2783
8.95363	4.9983
8.8618	3.915
8.77183	4.2502
8.68368	4.6177
8.59727	4.9758
8.51257	5.2715
8.42951	5.5473
8.34807	5.7749
8.26819	5.9636
8.18981	6.1286
8.11292	6.2551
8.03745	6.4009
7.96337	6.5381
7.89064	6.6492
7.81924	6.7763
7.74911	6.8611
7.68023	6.9277
7.61256	6.9897
7.54608	7.0744
7.48074	7.112
7.41653	7.1943
7.35341	7.2768
7.29136	7.3428
7.23034	7.4128
7.17033	7.3952
7.11132	7.4751
7.05327	7.4844
6.99616	7.5774
6.93996	7.6626
6.88467	7.7121
6.83024	7.7456
6.77667	7.7698
6.72393	7.8032
6.67201	7.844
6.62089	7.8987
6.57054	7.8535
6.52095	7.9507
6.4721	8.0683
6.42398	8.0984
6.37657	8.2048
6.32986	8.3108
6.28382	8.3828
6.23845	8.4023
6.19373	8.4233
6.14965	8.4411
6.10619	8.4233
6.06334	8.458
6.02109	8.4262
5.97942	8.4192
5.93832	8.2185
5.89778	8.2886
5.8578	8.3862
5.81835	8.3078
5.77943	8.3887
5.74103	8.448
5.70314	8.4826
5.66574	8.4961
5.62883	8.4458
5.5924	8.4502
5.55644	8.4512
5.52093	8.5078
5.48588	8.5315
5.45127	8.5642
5.41709	8.5349
5.38334	8.5779
5.35	8.5215
5.31708	8.602
5.28456	8.6047
5.25243	8.612
5.2207	8.6186
5.18934	8.6369
5.15836	8.6299
5.12775	8.6306
5.09749	8.6416
5.0676	8.6404
5.03805	8.6286
5.00884	8.6347
4.97998	8.6106
4.95144	8.6235
4.92322	8.6137
4.89533	8.6201
4.86775	8.6264
4.84048	8.6333
4.81351	8.6316
4.78684	8.6306
4.76047	8.6294
4.73439	8.6504
4.70859	8.6338
4.68306	8.6636
4.65782	8.6657
4.63284	8.6858
4.60814	8.699
4.58369	8.6875
4.5595	8.7058
4.53557	8.7121
4.51188	8.7241
4.48845	8.7339
4.46525	8.7424
4.44229	8.7473
4.41957	8.7536
4.39708	8.7561
4.37481	8.7636
4.35277	8.7563
4.33096	8.7268
4.30935	8.7182
4.28797	8.7124
4.26679	8.7168
4.24583	8.6633
4.22506	8.6845
4.2045	8.7114
4.18414	8.7341
4.16398	8.7231
4.14401	8.7229
4.12423	8.7126
4.10464	8.7304
4.08523	8.7302
4.066	8.747
4.04696	8.7346
4.02809	8.7307
4.0094	8.7373
3.99088	8.7395
3.97253	8.759
3.95435	8.7622
3.93634	8.7751
3.91848	8.7824
3.90079	8.769
3.88326	8.779
3.86589	8.7595
3.84867	8.7651
3.8316	8.7751
3.81468	8.7705
3.79791	8.7644
3.78129	8.7754
3.76482	8.7571
3.74848	8.7597
3.73229	8.7375
3.71624	8.7243
3.70032	8.7185
3.68454	8.7239
3.6689	8.7204
3.65338	8.7178
3.638	8.7131
3.62275	8.7226
3.60762	8.7026
3.59262	8.706
3.57775	8.7143
3.56299	8.6975
3.54836	8.7058
3.53385	8.7126
3.51945	8.7199
3.50517	8.8259
3.49101	8.7749
3.47696	8.7429
3.46303	8.7546
3.4492	8.77
3.43549	8.8135
3.42188	8.9385
3.40838	8.8901
3.39499	8.7812
3.38171	8.7744
3.36852	8.7375
3.35544	8.686
3.34246	8.6662
3.32958	8.6672
3.3168	8.6474
3.30411	8.6406
3.29153	8.6491
3.27903	8.625
3.26664	8.6223
3.25433	8.6208
3.24212	8.6177
3.23	8.6211
3.21797	8.6057
3.20603	8.5962
3.19418	8.605
3.18241	8.5981
3.17074	8.5808
3.15914	8.5835
3.14763	8.5791
3.13621	8.5857
3.12487	8.6008
3.11361	8.5906
3.10243	8.5769
3.09133	8.5835
3.0803	8.5801
3.06936	8.593
3.0585	8.5793
3.04771	8.584
3.037	8.5676
3.02636	8.5676
3.0158	8.5532
3.00531	8.5542
2.99489	8.55
2.98454	8.5437
2.97427	8.5327
2.96407	8.5241
2.95393	8.5073
2.94387	8.4858
2.93387	8.4851
2.92394	8.4595
2.91408	8.4409
2.90429	8.438
2.89456	8.425
2.88489	8.4131
2.87529	8.3965
2.86576	8.3708
2.85628	8.3803
2.84687	8.3147
2.83752	8.2973
2.82823	8.2883
2.81901	8.2812
2.80984	8.2597
2.80073	8.2319
2.79168	8.2309
2.78269	8.2705
2.77376	8.2295
2.76488	8.2519
2.75606	8.2485
2.7473	8.1216
2.73859	8.0586
2.72994	8.0954
2.72134	8.2229
2.7128	8.0791
2.70431	8.0268
2.69587	8.0461
2.68748	8.0207
2.67915	7.9924
2.67087	8.0063
2.66264	7.9429
2.65446	7.9289
2.64633	7.9846
2.63825	7.9214
2.63021	8.0054
2.62223	7.9255
2.6143	7.9321
2.60641	7.9094
2.59857	7.8498
2.59078	7.8496
2.58304	7.7549
2.57534	7.8052
2.56768	7.7358
2.56008	7.7632
2.55251	7.7583
2.54499	7.7864
2.53752	7.7612
2.53009	7.7033
2.5227	7.716
2.51536	7.7014
2.50806	7.6889
2.5008	7.6543
2.49358	7.6582
2.4864	7.644
2.47927	7.6479
2.47218	7.646
2.46512	7.5969
2.45811	7.6015
2.45114	7.5703
2.4442	7.5657
2.43731	7.5229
2.43045	7.5471
2.42363	7.5312
2.41685	7.4973
2.41011	7.499
2.40341	7.4614
2.39674	7.4306
2.39011	7.3879
2.38352	7.3896
2.37696	7.3955
2.37044	7.3547
2.36395	7.3906
2.35751	7.3242
2.35109	7.3157
2.34471	7.3069
2.33836	7.2961
2.33205	7.2846
2.32578	7.3039
2.31953	7.2717
2.31332	7.2131
2.30714	7.2505
2.301	7.1894
2.29489	7.2265
2.28881	7.1709
2.28276	7.1611
2.27675	7.177
2.27076	7.1272
2.26481	7.1167
2.25889	7.1152
2.253	7.0793
2.24714	7.0937
2.24131	7.0693
2.23551	7.0586
2.22974	7.0364
2.224	7.0361
2.21829	7.0073
2.21261	6.9848
2.20696	7.0102
2.20134	6.98
2.19574	6.9756
2.19018	6.9502
2.18464	6.9795
2.17913	6.9209
2.17365	6.9062
2.16819	6.9004
2.16277	6.8916
2.15737	6.8364
2.15199	6.854
2.14665	6.8857
2.14133	6.8301
2.13603	6.8257
2.13077	6.8535
2.12552	6.7959
2.12031	6.7763
2.11512	6.7641
2.10995	6.7656
2.10481	6.7324
2.0997	6.7969
2.09461	6.7734
2.08954	6.7597
2.0845	6.7471
2.07948	6.7622
