Name: Saponite (Ca/2,Na)0.33(Mg,Fe+2)3(Si,Al)4O10(OH)2.H2O
Type: Mineral
Class: Silicates
Subclass: Phyllosilicates (Sheet silicates); Smectite Group
Particle Size: Fine  (Less than 2  Micrometers)
Sample No.: saponite.1
Owner: JHU
Wavelength Range: IR
Origin: Ballarat, California, USA via the Hunt and Salisbury Collection
Description: Sample was a cream-colored, earthy clay. The less than
Measurement: Transmission
X Units: Wavelength (micrometers)
Y Units: Transmittance (percent)
wavelength	value
25.0442	59.1092
24.3388	51.6639
23.6719	47.1844
23.0407	42.5878
22.4422	38.4276
21.8741	40.7694
21.334	42.5907
20.8199	49.4183
20.33	53.9462
19.8627	57.0467
19.4163	58.9832
18.9896	59.0975
18.5812	62.1507
18.19	67.699
17.815	71.681
17.4551	76.0848
17.1094	79.5452
16.7772	81.6922
16.4576	82.3885
16.15	82.459
15.8537	81.5674
15.568	77.7557
15.2925	71.376
15.0265	70.16
14.7697	73.2625
14.5214	73.4285
14.2814	76.5389
14.0492	81.5821
13.8244	85.6096
13.6067	87.5069
13.3957	88.6492
13.1912	89.086
12.9929	89.6985
12.8004	89.0508
12.6135	88.8799
12.432	88.5515
12.2557	88.9221
12.0843	89.6453
11.9176	88.6326
11.7555	86.4226
11.5977	83.8133
11.444	80.833
11.2944	77.263
11.1487	73.0135
11.0067	68.9669
10.8682	65.4381
10.7332	61.7352
10.6015	57.1354
10.473	52.5755
10.3476	48.4252
10.2251	45.1449
10.1056	42.6891
9.98873	41.1112
9.87458	41.4638
9.763	43.8099
9.65392	46.6386
9.54724	49.202
9.44291	50.9794
9.34082	54.4942
9.24091	57.2098
9.14312	59.0169
9.04739	60.3141
8.95363	61.6505
8.8618	63.0062
8.77183	64.7313
8.68368	66.9466
8.59727	69.1138
8.51257	70.5911
8.42951	71.9766
8.34807	73.1663
8.26819	74.3641
8.18981	75.4312
8.11292	76.4432
8.03745	77.2698
7.96337	78.2019
7.89064	78.9163
7.81924	79.4385
7.74911	79.9964
7.68023	80.5787
7.61256	81.2295
7.54608	81.7874
7.48074	82.1924
7.41653	82.5857
7.35341	82.9485
7.29136	83.3831
7.23034	83.7659
7.17033	84.3902
7.11132	84.7957
7.05327	84.968
6.99616	85.3499
6.93996	85.8333
6.88467	86.0308
6.83024	86.1514
6.77667	86.4414
6.72393	86.6834
6.67201	86.9676
6.62089	87.2146
6.57054	87.6199
6.52095	87.8147
6.4721	88.0398
6.42398	88.3914
6.37657	88.4993
6.32986	88.574
6.28382	88.7
6.23845	88.7268
6.19373	88.2368
6.14965	87.2571
6.10619	86.9212
6.06334	87.2705
6.02109	88.2049
5.97942	89.054
5.93832	88.9221
5.89778	88.9068
5.8578	89.0178
5.81835	89.409
5.77943	89.5176
5.74103	89.6187
5.70314	89.6145
5.66574	89.6467
5.62883	89.8352
5.5924	89.8928
5.55644	90.0032
5.52093	90.094
5.48588	90.1931
5.45127	90.3479
5.41709	90.5232
5.38334	90.5115
5.35	90.699
5.31708	90.6651
5.28456	90.7561
5.25243	90.8289
5.2207	90.9883
5.18934	91.1079
5.15836	91.2708
5.12775	91.4338
5.09749	91.5696
5.0676	91.595
5.03805	91.6939
5.00884	91.7786
4.97998	91.8416
4.95144	91.9273
4.92322	91.9065
4.89533	91.8958
4.86775	91.9368
4.84048	92.011
4.81351	92.0613
4.78684	92.1248
4.76047	92.1353
4.73439	92.1572
4.70859	92.2061
4.68306	92.2312
4.65782	92.2952
4.63284	92.333
4.60814	92.5432
4.58369	92.4148
4.5595	92.4241
4.53557	92.4607
4.51188	92.4753
4.48845	92.4788
4.46525	92.5129
4.44229	92.5613
4.41957	92.554
4.39708	92.6062
4.37481	92.676
4.35277	92.6858
4.33096	92.7058
4.30935	92.7009
4.28797	92.7175
4.26679	92.7322
4.24583	92.7659
4.22506	92.7742
4.2045	92.7488
4.18414	92.8357
4.16398	92.863
4.14401	92.7732
4.12423	92.8521
4.10464	92.855
4.08523	92.8586
4.066	92.8684
4.04696	92.8442
4.02809	92.846
4.0094	92.8804
3.99088	92.9148
3.97253	92.8347
3.95435	92.9043
3.93634	92.9336
3.91848	92.9307
3.90079	92.9128
3.88326	92.9385
3.86589	92.8962
3.84867	92.9548
3.8316	92.9573
3.81468	92.9609
3.79791	92.9451
3.78129	92.9353
3.76482	92.9211
3.74848	92.9099
3.73229	92.8894
3.71624	92.8518
3.70032	92.8413
3.68454	92.8157
3.6689	92.7957
3.65338	92.7664
3.638	92.7571
3.62275	92.6641
3.60762	92.7119
3.59262	92.6423
3.57775	92.6348
3.56299	92.575
3.54836	92.5486
3.53385	92.5315
3.51945	92.4375
3.50517	92.4573
3.49101	92.325
3.47696	92.3176
3.46303	92.2783
3.4492	92.2617
3.43549	92.2481
3.42188	92.1924
3.40838	91.989
3.39499	92.0037
3.38171	92.0303
3.36852	92.041
3.35544	91.7908
3.34246	91.8059
3.32958	91.8206
3.3168	91.7454
3.30411	91.74
3.29153	91.6416
3.27903	91.5059
3.26664	91.407
3.25433	91.3672
3.24212	91.346
3.23	91.168
3.21797	91.1553
3.20603	90.9998
3.19418	90.8005
3.18241	90.6543
3.17074	90.4824
3.15914	90.2305
3.14763	90.0508
3.13621	89.8416
3.12487	89.6531
3.11361	89.4385
3.10243	89.1091
3.09133	88.822
3.0803	88.6865
3.06936	88.6172
3.0585	88.4629
3.04771	88.1326
3.037	87.9529
3.02636	87.6306
3.0158	87.3643
3.00531	87.125
2.99489	86.8279
2.98454	86.418
2.97427	86.083
2.96407	85.8955
2.95393	85.6687
2.94387	85.6126
2.93387	85.5384
2.92394	85.4778
2.91408	85.4085
2.90429	85.4436
2.89456	85.4456
2.88489	85.4422
2.87529	85.3333
2.86576	85.2508
2.85628	85.2586
2.84687	85.2542
2.83752	85.1443
2.82823	85.1511
2.81901	85.2361
2.80984	85.2171
2.80073	85.156
2.79168	85.1121
2.78269	85.157
2.77376	85.1463
2.76488	85.1756
2.75606	85.3045
2.7473	85.6175
2.73859	86.2254
2.72994	85.4793
2.72134	80.7635
2.7128	81.865
2.70431	85.5847
2.69587	86.322
2.68748	86.3455
2.67915	86.8738
2.67087	87.4553
2.66264	87.5271
2.65446	87.5584
2.64633	87.8084
2.63825	87.7542
2.63021	87.9031
2.62223	87.8103
2.6143	87.7459
2.60641	87.822
2.59857	87.6956
2.59078	87.7854
2.58304	87.7547
2.57534	87.5984
2.56768	87.6179
2.56008	87.6101
2.55251	87.4705
2.54499	87.3123
2.53752	87.4964
2.53009	87.4475
2.5227	87.2244
2.51536	87.2547
2.50806	87.3928
2.5008	87.2151
2.49358	87.0818
2.4864	87.0056
2.47927	87.0139
2.47218	87.012
2.46512	86.9417
2.45811	86.9475
2.45114	86.7674
2.4442	86.7049
2.43731	86.658
2.43045	86.6414
2.42363	86.6179
2.41685	86.6463
2.41011	86.5574
2.40341	86.3689
2.39674	86.4021
2.39011	86.3592
2.38352	86.4519
2.37696	86.2361
2.37044	86.3943
2.36395	86.3836
2.35751	86.2283
2.35109	86.4031
2.34471	86.3084
2.33836	86.0252
2.33205	86.0955
2.32578	85.8054
2.31953	86.0486
2.31332	86.0125
2.30714	85.7205
2.301	85.8572
2.29489	86.1736
2.28881	86.0603
2.28276	85.9217
2.27675	85.9353
2.27076	85.7732
2.26481	86.0369
2.25889	85.9353
2.253	86.0545
2.24714	85.9578
2.24131	85.9656
2.23551	85.9646
2.22974	86.3015
2.224	85.9138
2.21829	86.0554
2.21261	86.0252
2.20696	85.8758
2.20134	86.2517
2.19574	86.2029
2.19018	85.7937
2.18464	86.0193
2.17913	85.8084
2.17365	86.2263
2.16819	86.2498
2.16277	86.282
2.15737	86.1052
2.15199	85.9822
2.14665	85.9177
2.14133	85.9373
2.13603	86.4187
2.13077	86.3728
2.12552	86.3162
2.12031	86.2937
2.11512	86.2273
2.10995	86.2771
2.10481	86.4695
2.0997	86.6297
2.09461	86.8123
2.08954	86.5427
2.0845	85.8679
2.07948	87.0388
