Name: Tourmaline (Elbaite) Na(Li,Al)3Al6(BO3)3Si6018(OH)4
Type: Mineral
Class: Silicates
Subclass: Cycloilicates (Ring Silicates)
Particle Size: Fine  (0 - 74  Micrometers)
Sample No.: tourmal.1
Owner: JHU
Wavelength Range: IR
Origin: Sao Jose De Brejuada, Minas Gerais, Brazil via the Smithsonian
Description: The sample was a purple, translucent, sudhedral crystal,
Measurement: Bidirectional reflectance
X Units: Wavelength (micrometers)
Y Units: Reflectance (percent)
wavelength	value
25.0442	1.2476
24.3388	1.1895
23.6719	1.3076
23.0407	1.2202
22.4422	1.3779
21.8741	1.2769
21.334	1.2837
20.8199	1.3892
20.33	1.5085
19.8627	1.6562
19.4163	1.6438
18.9896	1.5928
18.5812	1.4172
18.19	1.3391
17.815	1.3115
17.4551	1.2544
17.1094	1.3044
16.7772	1.4185
16.4576	1.4185
16.15	1.2798
15.8537	1.3603
15.568	1.0237
15.2925	0.8213
15.0265	0.7168
14.7697	0.5505
14.5214	0.4592
14.2814	0.5525
14.0492	0.667
13.8244	0.6438
13.6067	0.3496
13.3957	0.4749
13.1912	0.6121
12.9929	0.7366
12.8004	1.0039
12.6135	1.2205
12.432	1.5146
12.2557	1.1545
12.0843	1.0207
11.9176	0.9443
11.7555	0.8159
11.5977	0.874
11.444	1.0078
11.2944	1.1067
11.1487	1.0986
11.0067	1.1318
10.8682	1.0876
10.7332	0.9819
10.6015	0.9656
10.473	0.9853
10.3476	1.0742
10.2251	1.1794
10.1056	1.2632
9.98873	1.1824
9.87458	1.071
9.763	1.1553
9.65392	1.239
9.54724	1.1023
9.44291	1.0527
9.34082	0.8943
9.24091	0.5669
9.14312	0.6628
9.04739	0.8765
8.95363	1.0471
8.8618	1.0278
8.77183	0.9038
8.68368	0.657
8.59727	0.5444
8.51257	0.5566
8.42951	0.5022
8.34807	0.6428
8.26819	0.7148
8.18981	0.658
8.11292	0.5774
8.03745	0.5684
7.96337	0.5928
7.89064	0.6245
7.81924	0.6421
7.74911	0.7168
7.68023	0.7693
7.61256	0.7358
7.54608	0.6536
7.48074	0.5708
7.41653	0.6316
7.35341	0.6965
7.29136	0.6392
7.23034	0.4893
7.17033	0.4656
7.11132	0.4441
7.05327	0.353
6.99616	0.3232
6.93996	0.3203
6.88467	0.4316
6.83024	0.5269
6.77667	1.0981
6.72393	1.5207
6.67201	1.4233
6.62089	1.6116
6.57054	2.3362
6.52095	2.6587
6.4721	2.8767
6.42398	3.0432
6.37657	3.1829
6.32986	3.343
6.28382	3.49
6.23845	3.6182
6.19373	3.7024
6.14965	3.6636
6.10619	3.6326
6.06334	3.5871
6.02109	3.4463
5.97942	3.2905
5.93832	3.2319
5.89778	3.2497
5.8578	3.343
5.81835	3.5181
5.77943	3.689
5.74103	3.8525
5.70314	4.0129
5.66574	4.1628
5.62883	4.2759
5.5924	4.3047
5.55644	4.2595
5.52093	4.1987
5.48588	4.2461
5.45127	4.4104
5.41709	4.5537
5.38334	4.5874
5.35	4.5566
5.31708	4.5596
5.28456	4.6648
5.25243	4.8266
5.2207	4.9907
5.18934	5.1196
5.15836	5.2112
5.12775	5.2727
5.09749	5.3064
5.0676	5.3452
5.03805	5.3821
5.00884	5.3694
4.97998	5.3091
4.95144	5.269
4.92322	5.3306
4.89533	5.4841
4.86775	5.6985
4.84048	5.9109
4.81351	6.1228
4.78684	6.312
4.76047	6.4741
4.73439	6.6294
4.70859	6.8481
4.68306	7.0681
4.65782	7.2236
4.63284	7.2942
4.60814	7.2846
4.58369	7.2461
4.5595	7.1643
4.53557	7.0437
4.51188	6.8769
4.48845	6.7048
4.46525	6.5495
4.44229	6.4221
4.41957	6.3078
4.39708	6.2046
4.37481	6.1433
4.35277	6.1211
4.33096	6.1355
4.30935	6.165
4.28797	6.2373
4.26679	6.3376
4.24583	6.4783
4.22506	6.6597
4.2045	6.8701
4.18414	7.0969
4.16398	7.3445
4.14401	7.6035
4.12423	7.8811
4.10464	8.1242
4.08523	8.3291
4.066	8.509
4.04696	8.6731
4.02809	8.7893
4.0094	8.8186
3.99088	8.7673
3.97253	8.6848
3.95435	8.6135
3.93634	8.5542
3.91848	8.4277
3.90079	8.1582
3.88326	7.7312
3.86589	7.2763
3.84867	6.8159
3.8316	6.3987
3.81468	6.1687
3.79791	6.2229
3.78129	6.4704
3.76482	6.7807
3.74848	7.0747
3.73229	7.2527
3.71624	7.3144
3.70032	7.3323
3.68454	7.4223
3.6689	7.5871
3.65338	7.8064
3.638	8.1159
3.62275	8.3933
3.60762	8.6189
3.59262	8.8703
3.57775	9.2414
3.56299	9.6281
3.54836	9.8476
3.53385	9.9856
3.51945	10.0586
3.50517	9.999
3.49101	9.9858
3.47696	10.0666
3.46303	10.1897
3.4492	10.1635
3.43549	10.0818
3.42188	10.0666
3.40838	10.1516
3.39499	10.2676
3.38171	10.2722
3.36852	10.2324
3.35544	10.1999
3.34246	10.1098
3.32958	10.051
3.3168	10.0078
3.30411	9.9729
3.29153	9.9184
3.27903	9.8681
3.26664	9.8169
3.25433	9.7734
3.24212	9.7119
3.23	9.615
3.21797	9.4863
3.20603	9.3369
3.19418	9.157
3.18241	8.9612
3.17074	8.7837
3.15914	8.5949
3.14763	8.3962
3.13621	8.1885
3.12487	7.9949
3.11361	7.8179
3.10243	7.6716
3.09133	7.5398
3.0803	7.4458
3.06936	7.303
3.0585	7.0691
3.04771	6.6274
3.037	5.9846
3.02636	5.2895
3.0158	4.7402
3.00531	4.4399
2.99489	4.3838
2.98454	4.5525
2.97427	4.8559
2.96407	5.1689
2.95393	5.3618
2.94387	5.1333
2.93387	4.4018
2.92394	3.449
2.91408	2.6941
2.90429	2.1721
2.89456	1.8196
2.88489	1.5554
2.87529	1.3926
2.86576	1.3044
2.85628	1.3528
2.84687	1.658
2.83752	2.3662
2.82823	3.0195
2.81901	2.3828
2.80984	1.7507
2.80073	1.3894
2.79168	1.1057
2.78269	1.095
2.77376	1.458
2.76488	3.2703
2.75606	6.0737
2.7473	6.0119
2.73859	4.0395
2.72994	6.946
2.72134	7.0888
2.7128	8.4199
2.70431	9.4267
2.69587	10.031
2.68748	10.4035
2.67915	10.5879
2.67087	10.6794
2.66264	10.6682
2.65446	10.675
2.64633	10.5901
2.63825	10.5097
2.63021	10.3935
2.62223	10.2839
2.6143	10.176
2.60641	10.0552
2.59857	9.9692
2.59078	9.9446
2.58304	9.9651
2.57534	9.9714
2.56768	9.9216
2.56008	9.9104
2.55251	9.9201
2.54499	9.9504
2.53752	9.9878
2.53009	9.9699
2.5227	9.9472
2.51536	9.9416
2.50806	9.9509
2.5008	9.9284
2.49358	9.9428
2.4864	9.9448
2.47927	10.0166
2.47218	10.1018
2.46512	10.1306
2.45811	10.1953
2.45114	10.2661
2.4442	10.3105
2.43731	10.3882
2.43045	10.3843
2.42363	10.3135
2.41685	10.216
2.41011	10.0735
2.40341	9.9394
2.39674	9.8843
2.39011	9.9018
2.38352	9.8686
2.37696	9.7436
2.37044	9.8569
2.36395	10.2656
2.35751	10.7627
2.35109	11.0366
2.34471	11.1543
2.33836	11.1716
2.33205	11.1631
2.32578	11.0202
2.31953	10.7319
2.31332	10.2114
2.30714	9.5359
2.301	9.2043
2.29489	10.0644
2.28881	11.1889
2.28276	11.6093
2.27675	11.5871
2.27076	11.3467
2.26481	10.8999
2.25889	10.4277
2.253	10.1875
2.24714	10.3413
2.24131	10.6792
2.23551	11.0532
2.22974	11.3081
2.224	11.3593
2.21829	11.2739
2.21261	10.8777
2.20696	10.2639
2.20134	10.1875
2.19574	10.6406
2.19018	11.0036
2.18464	10.9248
2.17913	10.4695
2.17365	10.2976
2.16819	10.8967
2.16277	11.4853
2.15737	11.7824
2.15199	11.8943
2.14665	11.999
2.14133	12.06
2.13603	12.1245
2.13077	12.1999
2.12552	12.2854
2.12031	12.3354
2.11512	12.3601
2.10995	12.427
2.10481	12.4582
2.0997	12.5202
2.09461	12.5656
2.08954	12.5781
2.0845	12.6301
2.07948	12.6328
