Name: 14149.18
Type: Soil
Class: Lunar
Subclass: Transitional
Particle Size: Fine
Sample No.: 14149.18
Owner: JHU
Origin: Apollo 14 landing site via the NASA Lunar Sample Repository at Johnson
Description: This sample is one of a suite of soils at the Apollo 14 site
Measurement: Directional (10 degree) hemispherical reflectance
X Units: Wavelength (micrometers)
Y Units: Reflectance (percent)
wavelength	value
14.011	0.7531
13.788	0.8644
13.571	1.0939
13.361	1.1717
13.158	1.2392
12.96	1.4149
12.769	1.5062
12.583	1.7484
12.402	2.0143
12.227	2.1633
12.056	2.1716
11.89	2.1204
11.729	2.1531
11.572	2.1632
11.419	2.1755
11.27	2.1186
11.125	2.0532
10.983	2.0212
10.846	2.0899
10.711	2.0678
10.58	1.9892
10.452	1.9166
10.327	1.8033
10.205	1.7014
10.086	1.6769
9.97	1.6422
9.856	1.6353
9.745	1.6491
9.636	1.6015
9.53	1.5925
9.426	1.5962
9.324	1.5242
9.225	1.4437
9.127	1.432
9.032	1.3663
8.938	1.2198
8.847	1.0784
8.757	1.0114
8.669	0.9641
8.583	0.9003
8.499	0.8206
8.416	0.7682
8.335	0.7215
8.255	0.6965
8.177	0.7393
8.1	0.8992
8.025	1.1682
7.951	1.577
7.879	2.0562
7.808	2.5516
7.737	3.1167
7.669	3.715
7.601	4.272
7.535	4.8163
7.47	5.3877
7.406	5.9115
7.343	6.4391
7.281	6.9412
7.22	7.3835
7.16	7.8555
7.102	8.2715
7.044	8.646
6.987	9.0071
6.931	9.3461
6.875	9.6565
6.821	9.8849
6.768	10.135
6.715	10.302
6.663	10.441
6.612	10.567
6.562	10.719
6.513	10.914
6.464	11.063
6.416	11.093
6.369	11.157
6.322	11.173
6.276	11.238
6.231	11.278
6.186	11.346
6.142	11.534
6.099	11.737
6.056	11.889
6.014	12.109
5.973	12.422
5.931	12.785
5.891	13.216
5.851	13.603
5.812	13.912
5.773	14.207
5.735	14.47
5.697	14.619
5.66	14.738
5.623	14.951
5.586	15.179
5.551	15.406
5.515	15.528
5.48	15.639
5.446	15.707
5.411	15.862
5.378	16.045
5.345	16.169
5.312	16.334
5.279	16.503
5.247	16.701
5.215	16.939
5.184	17.223
5.153	17.539
5.123	17.937
5.093	18.326
5.063	18.676
5.033	19.035
5.004	19.424
4.975	19.753
4.947	20.149
4.919	20.523
4.891	20.841
4.863	21.199
4.836	21.543
4.809	21.881
4.782	22.186
4.756	22.474
4.73	22.764
4.704	23.053
4.679	23.365
4.654	23.679
4.629	23.995
4.604	24.277
4.58	24.52
4.556	24.727
4.532	24.92
4.508	25.07
4.485	25.182
4.461	25.27
4.439	25.377
4.416	25.457
4.393	25.553
4.371	25.621
4.349	25.739
4.327	25.798
4.306	25.883
4.284	25.965
4.263	26.005
4.242	26.077
4.222	26.103
4.201	26.103
4.181	26.117
4.161	26.135
4.141	26.159
4.121	26.144
4.101	26.176
4.082	26.181
4.063	26.193
4.044	26.204
4.025	26.208
4.006	26.214
3.988	26.229
3.97	26.214
3.951	26.23
3.933	26.194
3.916	26.186
3.898	26.167
3.88	26.174
3.863	26.15
3.846	26.121
3.829	26.088
3.812	26.08
3.795	26.027
3.779	25.998
3.762	25.983
3.746	25.919
3.73	25.892
3.714	25.852
3.698	25.8
3.682	25.734
3.666	25.704
3.651	25.691
3.636	25.626
3.62	25.603
3.605	25.528
3.59	25.487
3.575	25.461
3.561	25.417
3.546	25.365
3.531	25.337
3.517	25.328
3.503	25.282
3.489	25.227
3.475	25.176
3.461	25.107
3.447	25.09
3.433	25.076
3.42	25.031
3.406	24.979
3.393	24.912
3.38	24.823
3.366	24.775
3.353	24.679
3.34	24.621
3.327	24.554
3.315	24.49
3.302	24.467
3.289	24.407
3.277	24.367
3.265	24.253
3.252	24.204
3.24	24.145
3.228	24.06
3.216	24.031
3.204	23.955
3.192	23.863
3.18	23.852
3.169	23.767
3.157	23.723
3.146	23.66
3.134	23.589
3.123	23.536
3.112	23.493
3.101	23.44
3.09	23.365
3.079	23.348
3.067	23.276
3.057	23.213
3.046	23.139
3.035	23.14
3.025	23.082
3.014	23.03
3.004	22.969
2.993	22.881
2.983	22.824
2.973	22.806
2.962	22.737
2.952	22.693
2.942	22.674
2.932	22.633
2.922	22.575
2.912	22.5
2.903	22.463
2.893	22.439
2.883	22.437
2.874	22.417
2.864	22.337
2.855	22.335
2.845	22.293
2.836	22.259
2.827	22.239
2.817	22.273
2.808	22.296
2.799	22.404
2.79	22.477
2.781	22.532
2.772	22.705
2.763	22.846
2.755	23.05
2.746	23.302
2.737	23.472
2.728	23.71
2.72	23.835
2.711	23.976
2.703	24.121
2.695	24.087
2.686	24.134
2.678	24.102
2.67	24.078
2.661	24.203
2.653	24.18
2.645	24.161
2.637	24.132
2.629	24.039
2.621	23.978
2.613	23.982
2.605	23.827
2.597	23.875
2.59	23.841
2.582	23.758
2.574	23.694
2.566	23.696
2.559	23.631
2.551	23.558
2.544	23.506
2.536	23.445
2.529	23.382
2.522	23.325
2.514	23.32
2.507	23.243
2.5	23.2
2.492	23.099
2.485	23.069
2.478	23.023
2.471	22.96
2.464	22.946
2.457	22.908
2.45	22.879
2.443	22.826
2.436	22.761
2.429	22.733
2.422	22.698
2.416	22.645
2.409	22.567
2.402	22.56
2.396	22.507
2.389	22.436
2.382	22.398
2.376	22.353
2.369	22.257
2.363	22.198
2.356	22.17
2.35	22.144
2.344	22.095
2.337	21.974
2.331	21.965
2.325	21.88
2.318	21.884
2.312	21.851
2.306	21.809
2.3	21.74
2.294	21.742
2.288	21.647
2.282	21.578
2.276	21.499
2.27	21.522
2.264	21.49
2.258	21.449
2.252	21.352
2.246	21.339
2.24	21.288
2.235	21.279
2.229	21.18
2.223	21.174
2.217	21.108
2.212	21.066
2.206	20.998
2.2	20.98
2.195	20.929
2.189	20.865
2.184	20.812
2.178	20.774
2.173	20.693
2.167	20.663
2.162	20.657
2.156	20.573
2.151	20.474
2.146	20.475
2.14	20.432
2.135	20.387
2.13	20.417
2.125	20.346
2.119	20.294
2.114	20.159
2.109	20.176
2.104	20.146
2.099	20.2
2.094	20.074
2.089	19.988
2.084	20.077
