Name: Monticellite CaMgSiO4
Type: Mineral
Class: Silicates
Subclass: Nesosilicates (Isolated tetrahedra); (OlivineGroup)
Particle Size: Fine  (0-74 micrometers)
Sample No.: monticell.1
Owner: JHU
Wavelength Range: IR
Origin: Magnet Cove, Arkansas via the Smithsonian (NMNH 79051-1)
Description: The sample was composed of one large fragment and two
Measurement: Bidirectional reflectance
X Units: Wavelength (micrometers)
Y Units: Reflectance (percent)
wavelength	value
25.0442	2.5381
24.3388	2.05
23.6719	2.5781
23.0407	2.5967
22.4422	2.2231
21.8741	1.6602
21.334	1.7512
20.8199	2.228
20.33	2.4863
19.8627	2.4475
19.4163	2.5835
18.9896	2.573
18.5812	2.4233
18.19	2.1404
17.815	1.6326
17.4551	1.4907
17.1094	1.5478
16.7772	1.8801
16.4576	2.3794
16.15	2.5815
15.8537	2.3301
15.568	2.1997
15.2925	2.3579
15.0265	2.6758
14.7697	2.8845
14.5214	3.1079
14.2814	3.3088
14.0492	3.3657
13.8244	3.4126
13.6067	3.3852
13.3957	3.3677
13.1912	3.3994
12.9929	3.321
12.8004	3.105
12.6135	2.9585
12.432	2.6702
12.2557	2.4092
12.0843	2.073
11.9176	2.2761
11.7555	2.4546
11.5977	2.5745
11.444	3.4375
11.2944	3.7537
11.1487	3.8325
11.0067	4.0254
10.8682	4.1643
10.7332	4.2485
10.6015	4.0173
10.473	2.7947
10.3476	3.6377
10.2251	3.2112
10.1056	3.04
9.98873	2.9058
9.87458	2.845
9.763	2.7981
9.65392	2.7202
9.54724	2.3584
9.44291	1.8408
9.34082	1.4385
9.24091	1.2109
9.14312	1.2312
9.04739	1.2839
8.95363	1.4121
8.8618	1.5557
8.77183	1.6221
8.68368	1.7117
8.59727	1.802
8.51257	1.9499
8.42951	2.1323
8.34807	2.3381
8.26819	2.5686
8.18981	2.8716
8.11292	3.2178
8.03745	3.875
7.96337	5.043
7.89064	6.0344
7.81924	6.5762
7.74911	6.8645
7.68023	7.2651
7.61256	7.6465
7.54608	8.0835
7.48074	8.4094
7.41653	8.8125
7.35341	9.2412
7.29136	9.2834
7.23034	9.5989
7.17033	9.7524
7.11132	9.5981
7.05327	9.4502
6.99616	9.604
6.93996	9.2969
6.88467	8.8896
6.83024	8.5556
6.77667	8.7673
6.72393	9.4084
6.67201	10.1203
6.62089	10.7766
6.57054	11.0764
6.52095	11.008
6.4721	10.6848
6.42398	10.2417
6.37657	9.7876
6.32986	9.0869
6.28382	8.5603
6.23845	8.6191
6.19373	8.1013
6.14965	6.8799
6.10619	6.8093
6.06334	5.7878
6.02109	5.6357
5.97942	6.4158
5.93832	6.8523
5.89778	7.9826
5.8578	9.1457
5.81835	9.5788
5.77943	9.2221
5.74103	8.7978
5.70314	8.0454
5.66574	8.0429
5.62883	9.1111
5.5924	9.5569
5.55644	9.8125
5.52093	9.8764
5.48588	10.448
5.45127	10.7592
5.41709	10.9526
5.38334	11.1748
5.35	11.4673
5.31708	11.4111
5.28456	11.5871
5.25243	12.1836
5.2207	12.3925
5.18934	12.8759
5.15836	13.1096
5.12775	13.0952
5.09749	12.9301
5.0676	12.5935
5.03805	11.9638
5.00884	12.1816
4.97998	13.54
4.95144	14.749
4.92322	15.166
4.89533	15.4223
4.86775	15.6037
4.84048	15.6975
4.81351	15.6936
4.78684	15.8728
4.76047	16.0632
4.73439	16.1635
4.70859	16.2065
4.68306	16.2265
4.65782	16.2514
4.63284	16.3086
4.60814	16.4394
4.58369	16.5031
4.5595	16.571
4.53557	16.6423
4.51188	16.7468
4.48845	16.8071
4.46525	16.8276
4.44229	16.8552
4.41957	16.9021
4.39708	16.9389
4.37481	16.9523
4.35277	16.9499
4.33096	16.9785
4.30935	17.0148
4.28797	17.0627
4.26679	17.1149
4.24583	17.1503
4.22506	17.1958
4.2045	17.2356
4.18414	17.2734
4.16398	17.2939
4.14401	17.31
4.12423	17.3042
4.10464	17.2981
4.08523	17.2771
4.066	17.2082
4.04696	17.1362
4.02809	17.1745
4.0094	17.1948
3.99088	17.1652
3.97253	17.156
3.95435	17.1386
3.93634	17.1154
3.91848	17.0678
3.90079	16.997
3.88326	16.8903
3.86589	16.7812
3.84867	16.6816
3.8316	16.6047
3.81468	16.541
3.79791	16.4592
3.78129	16.3872
3.76482	16.3103
3.74848	16.2375
3.73229	16.1684
3.71624	16.1008
3.70032	16.0398
3.68454	15.9462
3.6689	15.8725
3.65338	15.7946
3.638	15.7038
3.62275	15.5776
3.60762	15.4419
3.59262	15.3054
3.57775	15.1762
3.56299	15.0327
3.54836	14.8825
3.53385	14.6901
3.51945	14.3593
3.50517	13.7614
3.49101	13.8994
3.47696	13.9294
3.46303	13.9006
3.4492	13.6501
3.43549	13.3044
3.42188	12.6594
3.40838	12.656
3.39499	12.9887
3.38171	12.927
3.36852	12.9768
3.35544	13.1411
3.34246	13.1391
3.32958	13.0446
3.3168	12.9216
3.30411	12.7819
3.29153	12.6286
3.27903	12.4482
3.26664	12.2717
3.25433	12.0923
3.24212	11.9482
3.23	11.7414
3.21797	11.5549
3.20603	11.3676
3.19418	11.1687
3.18241	10.9663
3.17074	10.7776
3.15914	10.5852
3.14763	10.3708
3.13621	10.1496
3.12487	9.9624
3.11361	9.8183
3.10243	9.7141
3.09133	9.6103
3.0803	9.49
3.06936	9.3952
3.0585	9.2937
3.04771	9.2361
3.037	9.1574
3.02636	9.0356
3.0158	8.9011
3.00531	8.7619
2.99489	8.6096
2.98454	8.4917
2.97427	8.3701
2.96407	8.311
2.95393	8.2676
2.94387	8.324
2.93387	8.3728
2.92394	8.5093
2.91408	8.7212
2.90429	8.813
2.89456	8.8059
2.88489	8.7141
2.87529	8.6089
2.86576	8.54
2.85628	8.5437
2.84687	8.6662
2.83752	9.0202
2.82823	9.5039
2.81901	9.7937
2.80984	9.9402
2.80073	9.9919
2.79168	10.2251
2.78269	10.3615
2.77376	10.4128
2.76488	10.3149
2.75606	10.2593
2.7473	10.1028
2.73859	9.978
2.72994	10.0678
2.72134	9.9328
2.7128	9.5239
2.70431	10.206
2.69587	12.5949
2.68748	14.9553
2.67915	15.8649
2.67087	16.2832
2.66264	18.3298
2.65446	18.686
2.64633	18.851
2.63825	19.0334
2.63021	19.0683
2.62223	19.1547
2.6143	19.1752
2.60641	19.1445
2.59857	19.1701
2.59078	19.1892
2.58304	19.1503
2.57534	19.1711
2.56768	19.1591
2.56008	19.1569
2.55251	19.1672
2.54499	19.2153
2.53752	19.2646
2.53009	19.2705
2.5227	19.2006
2.51536	19.1904
2.50806	19.2031
2.5008	19.2338
2.49358	19.3129
2.4864	19.3535
2.47927	19.3452
2.47218	19.3642
2.46512	19.458
2.45811	19.5141
2.45114	19.4882
2.4442	19.4963
2.43731	19.4199
2.43045	19.415
2.42363	19.477
2.41685	19.5624
2.41011	19.5141
2.40341	19.5107
2.39674	19.5156
2.39011	19.4921
2.38352	19.5244
2.37696	19.5537
2.37044	19.5317
2.36395	19.5844
2.35751	19.5222
2.35109	19.4643
2.34471	19.2373
2.33836	19.0527
2.33205	19.0161
2.32578	18.9831
2.31953	18.9934
2.31332	19.0607
2.30714	19.1176
2.301	19.2197
2.29489	19.3076
2.28881	19.2709
2.28276	19.291
2.27675	19.3281
2.27076	19.3417
2.26481	19.4296
2.25889	19.4804
2.253	19.4855
2.24714	19.4643
2.24131	19.5
2.23551	19.5332
2.22974	19.5654
2.224	19.5266
2.21829	19.5654
2.21261	19.4965
2.20696	19.5029
2.20134	19.5129
2.19574	19.5227
2.19018	19.5324
2.18464	19.5344
2.17913	19.7128
2.17365	19.7258
2.16819	19.8115
2.16277	19.8413
2.15737	19.8222
2.15199	19.7622
2.14665	19.7426
2.14133	19.8525
2.13603	19.8437
2.13077	19.8774
2.12552	19.9404
2.12031	20.0705
2.11512	19.9826
2.10995	19.9934
2.10481	20.0175
2.0997	19.9338
2.09461	20.0393
2.08954	20.0422
2.0845	20.0761
2.07948	20.0361
