Name: Calcite CaCO3
Type: Mineral
Class: Carbonates
Particle Size: Coarse  (74-250 Micrometers)
Sample No.: calcite.1
Owner: JHU
Wavelength Range: IR
Origin: Hunt and Salisbury Collection #194B (purchased from Ward's
Description: The sample consisted of transparent euhedral crystals.
Measurement: Bidirectional reflectance
X Units: Wavelength (micrometers)
Y Units: Reflectance (percent)
wavelength	value
25.0442	8.5097
24.3388	5.2754
23.6719	3.0019
23.0407	2.458
22.4422	1.8184
21.8741	1.7153
21.334	1.7314
20.8199	1.834
20.33	1.8977
19.8627	2.0503
19.4163	2.1694
18.9896	2.3757
18.5812	2.5693
18.19	2.8171
17.815	3.0967
17.4551	3.0679
17.1094	3.03
16.7772	3.2402
16.4576	3.7808
16.15	4.2563
15.8537	4.6225
15.568	5.1963
15.2925	5.7344
15.0265	6.384
14.7697	6.7109
14.5214	6.2051
14.2814	4.2305
14.0492	3.5139
13.8244	3.5788
13.6067	6.3423
13.3957	7.5788
13.1912	7.0408
12.9929	5.5478
12.8004	5.1294
12.6135	5.4829
12.432	5.7712
12.2557	5.8276
12.0843	6.0876
11.9176	5.54
11.7555	3.9573
11.5977	4.082
11.444	4.8035
11.2944	9.8103
11.1487	7.0205
11.0067	6.0466
10.8682	6.0425
10.7332	4.9692
10.6015	4.8127
10.473	5.0227
10.3476	5.4836
10.2251	4.813
10.1056	4.6619
9.98873	4.251
9.87458	3.9412
9.763	4.1865
9.65392	5.03
9.54724	5.2512
9.44291	5.3982
9.34082	4.9995
9.24091	5.4336
9.14312	5.3616
9.04739	5.2488
8.95363	5.0776
8.8618	4.7488
8.77183	4.4141
8.68368	3.748
8.59727	3.2451
8.51257	3.2353
8.42951	3.2886
8.34807	3.4333
8.26819	3.5137
8.18981	3.564
8.11292	3.5129
8.03745	3.4902
7.96337	3.5483
7.89064	3.4978
7.81924	3.552
7.74911	3.5708
7.68023	3.5527
7.61256	3.5539
7.54608	3.6577
7.48074	3.7869
7.41653	3.9507
7.35341	4.1953
7.29136	4.4951
7.23034	4.9953
7.17033	5.9565
7.11132	7.2007
7.05327	8.4416
6.99616	8.781
6.93996	9.0005
6.88467	9.3669
6.83024	9.7817
6.77667	10.3183
6.72393	11.2817
6.67201	12.7361
6.62089	13.8606
6.57054	15.0676
6.52095	15.7155
6.4721	15.4838
6.42398	11.4699
6.37657	9.332
6.32986	7.1306
6.28382	5.6152
6.23845	4.1999
6.19373	2.5549
6.14965	1.3164
6.10619	0.9143
6.06334	0.9636
6.02109	1.1235
5.97942	1.2795
5.93832	1.4216
5.89778	1.5686
5.8578	1.5757
5.81835	1.5105
5.77943	1.4575
5.74103	1.489
5.70314	1.6616
5.66574	1.9485
5.62883	2.0894
5.5924	1.387
5.55644	1.0749
5.52093	2.2283
5.48588	3.5278
5.45127	4.6997
5.41709	5.925
5.38334	6.9421
5.35	7.7798
5.31708	8.5986
5.28456	9.2463
5.25243	9.7129
5.2207	10.0818
5.18934	10.4533
5.15836	10.7033
5.12775	10.8698
5.09749	8.1867
5.0676	11.3235
5.03805	11.4074
5.00884	11.3598
4.97998	11.2488
4.95144	11.1274
4.92322	11.1259
4.89533	11.1982
4.86775	11.2839
4.84048	11.3613
4.81351	11.4201
4.78684	11.4028
4.76047	10.9682
4.73439	10.1352
4.70859	7.1843
4.68306	5.3174
4.65782	5.3857
4.63284	7.4824
4.60814	8.8078
4.58369	9.0764
4.5595	9.1452
4.53557	9.1555
4.51188	9.2102
4.48845	9.612
4.46525	10.3696
4.44229	10.9084
4.41957	11.3896
4.39708	11.6506
4.37481	11.7883
4.35277	11.1906
4.33096	11.0027
4.30935	10.9702
4.28797	11.1936
4.26679	11.0974
4.24583	10.9026
4.22506	10.6555
4.2045	10.4409
4.18414	10.062
4.16398	9.6357
4.14401	9.0261
4.12423	8.1794
4.10464	7.3013
4.08523	6.4709
4.066	5.4145
4.04696	4.0134
4.02809	2.6001
4.0094	1.9285
3.99088	1.6277
3.97253	1.5681
3.95435	1.6174
3.93634	1.9402
3.91848	2.0207
3.90079	2.0859
3.88326	2.1294
3.86589	2.1611
3.84867	2.2165
3.8316	2.5727
3.81468	3.4651
3.79791	5.5303
3.78129	8.1675
3.76482	9.2268
3.74848	9.6999
3.73229	10.3042
3.71624	10.6455
3.70032	10.8293
3.68454	10.907
3.6689	10.8481
3.65338	10.7048
3.638	10.4836
3.62275	10.1919
3.60762	9.7417
3.59262	8.8979
3.57775	7.2014
3.56299	7.0117
3.54836	6.4416
3.53385	4.6474
3.51945	2.5256
3.50517	2.0493
3.49101	1.8474
3.47696	1.748
3.46303	2.1826
3.4492	2.3767
3.43549	2.4158
3.42188	2.428
3.40838	2.386
3.39499	2.3171
3.38171	2.2456
3.36852	2.2051
3.35544	1.9604
3.34246	2.5351
3.32958	5.1152
3.3168	6.6262
3.30411	7.5884
3.29153	8.3601
3.27903	9.0202
3.26664	9.6059
3.25433	10.0681
3.24212	10.4297
3.23	10.8296
3.21797	11.2065
3.20603	11.5434
3.19418	11.7666
3.18241	11.8684
3.17074	11.6438
3.15914	10.6496
3.14763	10.435
3.13621	10.885
3.12487	11.0503
3.11361	10.185
3.10243	10.3752
3.09133	11.1755
3.0803	12.0063
3.06936	12.3852
3.0585	12.7111
3.04771	13.1281
3.037	13.4653
3.02636	13.7602
3.0158	14.0168
3.00531	14.2495
2.99489	14.4604
2.98454	14.593
2.97427	14.6496
2.96407	14.6655
2.95393	14.6545
2.94387	14.7009
2.93387	14.7397
2.92394	14.7575
2.91408	14.7641
2.90429	14.7685
2.89456	14.7685
2.88489	14.7529
2.87529	14.6811
2.86576	14.6208
2.85628	14.5581
2.84687	14.4104
2.83752	14.1543
2.82823	13.643
2.81901	13.154
2.80984	12.4138
2.80073	11.4448
2.79168	9.7759
2.78269	10.1118
2.77376	11.5332
2.76488	12.7099
2.75606	13.1569
2.7473	13.3423
2.73859	13.4751
2.72994	13.593
2.72134	13.8203
2.7128	14.0556
2.70431	14.4008
2.69587	14.7124
2.68748	14.8979
2.67915	15.0146
2.67087	15.0727
2.66264	15.1128
2.65446	15.1235
2.64633	15.1052
2.63825	15.0786
2.63021	15.0854
2.62223	14.9985
2.6143	14.9253
2.60641	14.852
2.59857	14.7202
2.59078	14.5183
2.58304	14.2387
2.57534	14.0673
2.56768	13.6528
2.56008	12.8471
2.55251	11.436
2.54499	9.9033
2.53752	9.1494
2.53009	9.5429
2.5227	10.3093
2.51536	10.8362
2.50806	11.0471
2.5008	11.1758
2.49358	11.3396
2.4864	11.5083
2.47927	11.8921
2.47218	12.4094
2.46512	12.916
2.45811	13.3188
2.45114	13.6362
2.4442	13.8296
2.43731	14.0422
2.43045	14.2065
2.42363	14.3664
2.41685	14.4956
2.41011	14.5761
2.40341	14.4541
2.39674	14.5166
2.39011	14.5344
2.38352	14.4836
2.37696	14.3891
2.37044	14.1379
2.36395	13.6162
2.35751	12.8076
2.35109	12.0654
2.34471	11.4975
2.33836	11.3818
2.33205	11.6447
2.32578	12.0708
2.31953	12.3713
2.31332	12.5832
2.30714	12.7141
2.301	12.7756
2.29489	12.9389
2.28881	13.0901
2.28276	13.2959
2.27675	13.6113
2.27076	13.8449
2.26481	14.0166
2.25889	14.123
2.253	14.3027
2.24714	14.4023
2.24131	14.469
2.23551	14.6074
2.22974	14.6672
2.224	14.7131
2.21829	14.8078
2.21261	14.8794
2.20696	14.8867
2.20134	14.8911
2.19574	14.9443
2.19018	14.9648
2.18464	14.9536
2.17913	14.9301
2.17365	14.9189
2.16819	14.9311
2.16277	14.8891
2.15737	14.8227
2.15199	14.8364
2.14665	14.873
2.14133	15.0888
2.13603	15.0874
2.13077	15.1357
2.12552	15.2231
2.12031	15.2426
2.11512	15.2461
2.10995	15.3066
2.10481	15.331
2.0997	15.372
2.09461	15.5019
2.08954	15.4961
2.0845	15.4301
2.07948	15.5044
