Name: Black Shale
Type: Rocks
Class: Sedimentary
Subclass: Shale
Particle Size: 0 - 75 Micrometers
Owner: JHU
Wavelength Range: All
Origin: Sample No. 385,  The Hunt and Salisbury Collection at the U.S.
Description: This is very similar to shale.6, but with more clay in the
Measurement: Directional (10 Degree) Hemispherical Reflectance
X Units: Wavelength (micrometers)
Y Units: Reflectance (percent)
wavelength	value
14.983	3.2306
14.645	4.1211
14.321	3.0317
14.011	2.9469
13.715	4.2916
13.43	4.7245
13.158	4.6065
12.896	3.2915
12.644	2.8856
12.402	2.3625
12.169	4.1767
11.945	5.1934
11.729	6.5705
11.52	5.285
11.319	3.454
11.125	4.6873
10.937	3.4968
10.755	3.4154
10.58	3.5139
10.41	3.4263
10.245	2.771
10.086	2.3698
9.931	2.2303
9.781	2.2128
9.636	2.2621
9.495	2.3767
9.358	2.9083
9.225	3.3708
9.095	3.3166
8.969	3.1501
8.847	3.1501
8.727	3.1816
8.612	3.0504
8.499	3.6377
8.389	4.2835
8.281	5.7797
8.177	8.3331
8.075	9.4127
7.976	10.424
7.879	10.595
7.784	11.177
7.692	11.905
7.601	11.481
7.513	11.487
7.427	10.82
7.343	9.106
7.261	6.3969
7.18	4.091
7.102	3.4601
7.025	2.9564
6.949	2.4371
6.875	2.2531
6.803	2.1832
6.733	2.3513
6.663	2.6419
6.596	3.3258
6.529	4.1926
6.464	5.8006
6.4	7.4479
6.338	7.0017
6.276	6.1494
6.216	5.6964
6.157	5.8389
6.099	6.5409
6.042	7.3171
5.986	8.2684
5.931	8.9384
5.878	10.458
5.825	11.743
5.773	12.485
5.722	13.319
5.672	13.866
5.623	12.989
5.574	6.3711
5.527	11.82
5.48	14.639
5.434	16.575
5.389	15.263
5.345	13.9
5.301	14.91
5.258	17.051
5.215	19.795
5.174	20.636
5.133	20.877
5.093	20.794
5.053	20.688
5.014	20.784
4.975	21.829
4.937	23.339
4.9	24.829
4.863	26.067
4.827	26.595
4.791	26.881
4.756	27.087
4.721	27.024
4.687	26.197
4.654	26.409
4.62	27.399
4.588	27.833
4.556	28.065
4.524	28.103
4.492	28.08
4.461	28.248
4.431	28.547
4.401	28.84
4.371	29.102
4.342	29.138
4.313	29.171
4.284	29.204
4.256	29.257
4.229	29.356
4.201	29.394
4.174	29.368
4.147	29.262
4.121	29.083
4.095	28.787
4.069	28.122
4.044	26.287
4.019	22.365
3.994	15.37
3.97	13.42
3.945	17.482
3.921	20.257
3.898	21.456
3.875	22.019
3.852	22.732
3.829	23.997
3.806	25.731
3.784	27.674
3.762	28.312
3.74	28.492
3.719	28.462
3.698	28.312
3.677	28.025
3.656	27.758
3.636	27.477
3.615	26.994
3.595	26.319
3.575	25.365
3.556	24.393
3.536	22.96
3.517	19.346
3.498	16.952
3.479	15.886
3.461	17.492
3.442	17.091
3.424	15.725
3.406	16.029
3.388	16.088
3.371	16.513
3.353	16.442
3.336	18.32
3.319	18.626
3.302	18.663
3.285	18.764
3.269	18.811
3.252	19.101
3.236	19.17
3.22	18.952
3.204	18.607
3.188	18.233
3.173	17.836
3.157	17.359
3.142	16.94
3.127	16.434
3.112	15.912
3.097	15.414
3.082	14.97
3.067	14.585
3.053	14.266
3.039	13.97
3.025	13.757
3.011	13.679
2.997	13.755
2.983	14.002
2.969	14.179
2.956	14.25
2.942	14.365
2.929	14.413
2.916	14.548
2.903	14.684
2.89	14.907
2.877	15.078
2.864	15.179
2.852	15.167
2.839	15.024
2.827	14.739
2.814	14.187
2.802	13.385
2.79	11.914
2.778	9.4021
2.766	7.347
2.755	6.6652
2.743	7.6214
2.731	9.3829
2.72	14.2
2.708	20.901
2.697	24.851
2.686	27.154
2.675	27.83
2.664	28.137
2.653	28.622
2.642	28.735
2.632	28.581
2.621	28.609
2.61	28.666
2.6	28.67
2.59	28.691
2.579	28.728
2.569	28.733
2.559	28.688
2.549	28.623
2.539	28.479
2.529	28.491
2.519	28.554
2.509	28.577
2.5	28.515
2.49	28.536
2.481	28.522
2.471	28.548
2.462	28.491
2.452	28.515
2.443	28.468
2.434	28.518
2.425	28.539
2.416	28.567
2.407	28.598
2.398	28.613
2.389	28.595
2.38	28.496
2.372	28.525
2.363	28.424
2.354	28.279
2.346	28.194
2.337	28.21
2.329	28.273
2.321	28.347
2.312	28.333
2.304	28.392
2.296	28.403
2.288	28.447
2.28	28.411
2.272	28.434
2.264	28.388
2.256	28.323
2.248	28.306
2.24	28.199
2.233	28.171
2.225	28.079
2.217	27.927
2.21	27.819
2.202	27.833
2.195	27.822
2.187	27.918
2.18	27.992
2.173	27.993
2.166	28.025
2.158	27.995
2.151	28.016
2.144	27.952
2.137	27.966
2.13	27.906
2.123	27.891
2.116	27.841
2.109	27.768
2.102	27.832
2.095	27.82
2.089	27.759
2.082	27.74
2.06	27.781
2.028	27.407
1.996	27.05
1.964	26.448
1.932	25.831
1.9	26.212
1.868	25.378
1.836	25.745
1.804	25.6
1.772	25.292
1.74	24.898
1.708	24.898
1.676	24.416
1.644	24.191
1.612	23.79
1.58	23.887
1.548	23.652
1.516	23.194
1.484	22.731
1.452	22.322
1.42	21.982
1.388	21.767
1.356	21.373
1.324	20.976
1.292	20.54
1.26	20.4
1.228	19.863
1.196	19.534
1.164	18.834
1.132	18.393
1.1	18.023
1.068	17.601
1.036	16.974
1.004	16.472
0.972	15.955
0.94	15.515
0.908	14.984
0.876	14.457
0.844	14.112
0.812	13.859
0.795	13.452
0.787	13.186
0.779	13.012
0.771	12.617
0.763	12.614
0.755	12.421
0.747	12.436
0.739	12.221
0.731	12.275
0.723	11.707
0.715	11.693
0.707	11.381
0.699	12.004
0.691	11.213
0.683	11.144
0.675	11.144
0.667	10.812
0.659	10.49
0.651	10.558
0.643	10.289
0.635	10.087
0.627	10.014
0.619	9.7562
0.611	9.5087
0.603	9.4584
0.595	9.4055
0.587	9.2757
0.579	8.8797
0.571	8.7238
0.563	8.521
0.555	8.4554
0.547	8.3075
0.539	8.2088
0.531	8.0402
0.523	7.9282
0.515	7.7237
0.507	7.4312
0.499	7.4499
0.491	7.4264
0.483	7.2304
0.475	7.0478
0.467	6.9261
0.459	6.6343
0.451	6.4987
0.443	6.4077
0.435	6.0081
0.427	6.1249
0.419	5.9089
0.411	5.8856
0.403	5.5671
