Name: Monticellite CaMgSiO4
Type: Mineral
Class: Silicates
Subclass: Nesosilicates (Isolated tetrahedra); (OlivineGroup)
Particle Size: Solid
Sample No.: monticell.1
Owner: JHU
Wavelength Range: IR
Origin: Magnet Cove, Arkansas via the Smithsonian (NMNH 79051-1)
Description: The sample was composed of one large fragment and two
Measurement: Bidirectional reflectance
X Units: Wavelength (micrometers)
Y Units: Reflectance (percent)
wavelength	value
25.0442	17.2793
24.3388	13.4243
23.6719	17.2993
23.0407	21.1069
22.4422	19.4328
21.8741	11.4941
21.334	11.9738
20.8199	16.3176
20.33	17.8566
19.8627	16.4663
19.4163	17.9016
18.9896	18.8208
18.5812	17.4262
18.19	15.0844
17.815	10.9126
17.4551	8.4529
17.1094	9.4995
16.7772	13.2094
16.4576	16.8754
16.15	15.8745
15.8537	10.623
15.568	4.6665
15.2925	3.7851
15.0265	4.3799
14.7697	4.8779
14.5214	5.3003
14.2814	5.6252
14.0492	5.9431
13.8244	6.2019
13.6067	6.4502
13.3957	6.7353
13.1912	7.0139
12.9929	7.3281
12.8004	7.6033
12.6135	7.9826
12.432	8.4123
12.2557	9.1018
12.0843	10.5959
11.9176	9.3279
11.7555	10.7456
11.5977	13.0974
11.444	19.7868
11.2944	24.5158
11.1487	27.1384
11.0067	31.3725
10.8682	36.3991
10.7332	38.59
10.6015	35.1098
10.473	23.5234
10.3476	29.8344
10.2251	23.277
10.1056	21.7534
9.98873	21.0436
9.87458	21.0615
9.763	19.9201
9.65392	20.0971
9.54724	19.302
9.44291	16.3481
9.34082	11.2004
9.24091	6.022
9.14312	3.0203
9.04739	2.1328
8.95363	2.4629
8.8618	2.668
8.77183	2.852
8.68368	3.0251
8.59727	3.1719
8.51257	3.2839
8.42951	3.4155
8.34807	3.5102
8.26819	3.5928
8.18981	3.6875
8.11292	3.749
8.03745	3.8115
7.96337	3.8672
7.89064	3.9492
7.81924	4.0166
7.74911	4.0967
7.68023	4.1589
7.61256	4.2197
7.54608	4.2759
7.48074	4.3249
7.41653	4.3704
7.35341	4.4184
7.29136	4.4382
7.23034	4.4829
7.17033	4.54
7.11132	4.5935
7.05327	4.6272
6.99616	4.6504
6.93996	4.6643
6.88467	4.6709
6.83024	4.6858
6.77667	4.6887
6.72393	4.6797
6.67201	4.6662
6.62089	4.6738
6.57054	4.6582
6.52095	4.6709
6.4721	4.6797
6.42398	4.6597
6.37657	4.6924
6.32986	4.7236
6.28382	4.7314
6.23845	4.7353
6.19373	4.7141
6.14965	4.7041
6.10619	4.677
6.06334	4.6802
6.02109	4.6648
5.97942	4.6587
5.93832	4.6147
5.89778	4.6191
5.8578	4.6225
5.81835	4.5942
5.77943	4.6265
5.74103	4.6775
5.70314	4.6641
5.66574	4.6428
5.62883	4.6321
5.5924	4.6326
5.55644	4.6216
5.52093	4.6279
5.48588	4.6218
5.45127	4.6391
5.41709	4.6333
5.38334	4.6348
5.35	4.6326
5.31708	4.6465
5.28456	4.6457
5.25243	4.6597
5.2207	4.6614
5.18934	4.6877
5.15836	4.7121
5.12775	4.7236
5.09749	4.7314
5.0676	4.7253
5.03805	4.7234
5.00884	4.7168
4.97998	4.7161
4.95144	4.7475
4.92322	4.7927
4.89533	4.8159
4.86775	4.8442
4.84048	4.8567
4.81351	4.8655
4.78684	4.8774
4.76047	4.8813
4.73439	4.8896
4.70859	4.8801
4.68306	4.8879
4.65782	4.8882
4.63284	4.907
4.60814	4.9133
4.58369	4.9238
4.5595	4.937
4.53557	4.9397
4.51188	4.9397
4.48845	4.9448
4.46525	4.949
4.44229	4.9502
4.41957	4.9463
4.39708	4.9607
4.37481	4.956
4.35277	4.9612
4.33096	4.948
4.30935	4.9355
4.28797	4.9385
4.26679	4.9504
4.24583	4.9419
4.22506	4.9375
4.2045	4.9358
4.18414	4.9348
4.16398	4.9326
4.14401	4.9448
4.12423	4.9397
4.10464	4.9092
4.08523	4.8935
4.066	4.8591
4.04696	4.8415
4.02809	4.845
4.0094	4.8308
3.99088	4.8125
3.97253	4.8159
3.95435	4.8196
3.93634	4.7986
3.91848	4.7891
3.90079	4.7866
3.88326	4.7883
3.86589	4.7903
3.84867	4.7881
3.8316	4.7768
3.81468	4.7737
3.79791	4.7732
3.78129	4.7742
3.76482	4.7693
3.74848	4.7737
3.73229	4.7727
3.71624	4.7722
3.70032	4.7515
3.68454	4.7505
3.6689	4.7436
3.65338	4.7358
3.638	4.7219
3.62275	4.7124
3.60762	4.7019
3.59262	4.6894
3.57775	4.6758
3.56299	4.6794
3.54836	4.6557
3.53385	4.6348
3.51945	4.615
3.50517	4.5784
3.49101	4.6404
3.47696	4.6079
3.46303	4.6103
3.4492	4.5793
3.43549	4.5766
3.42188	4.552
3.40838	4.5935
3.39499	4.5996
3.38171	4.5893
3.36852	4.6457
3.35544	4.6301
3.34246	4.625
3.32958	4.5972
3.3168	4.5845
3.30411	4.5813
3.29153	4.5701
3.27903	4.5622
3.26664	4.5515
3.25433	4.5215
3.24212	4.5127
3.23	4.5037
3.21797	4.4741
3.20603	4.4648
3.19418	4.4697
3.18241	4.4585
3.17074	4.4311
3.15914	4.4267
3.14763	4.4248
3.13621	4.4036
3.12487	4.3838
3.11361	4.3791
3.10243	4.3586
3.09133	4.3516
3.0803	4.324
3.06936	4.3247
3.0585	4.3093
3.04771	4.2964
3.037	4.272
3.02636	4.2649
3.0158	4.2554
3.00531	4.2285
2.99489	4.2187
2.98454	4.2183
2.97427	4.1848
2.96407	4.1675
2.95393	4.1435
2.94387	4.1472
2.93387	4.124
2.92394	4.1006
2.91408	4.0918
2.90429	4.0791
2.89456	4.0688
2.88489	4.0508
2.87529	4.0259
2.86576	4.0088
2.85628	4.0117
2.84687	3.9809
2.83752	3.9487
2.82823	3.9106
2.81901	3.8638
2.80984	3.833
2.80073	3.7974
2.79168	3.9009
2.78269	3.8845
2.77376	3.8994
2.76488	3.8823
2.75606	3.8572
2.7473	3.8713
2.73859	3.8838
2.72994	3.8691
2.72134	3.8603
2.7128	3.8501
2.70431	3.8476
2.69587	3.8965
2.68748	3.9101
2.67915	3.9145
2.67087	3.8821
2.66264	3.8772
2.65446	3.8743
2.64633	3.8401
2.63825	3.8381
2.63021	3.7922
2.62223	3.7944
2.6143	3.8061
2.60641	3.7583
2.59857	3.7397
2.59078	3.7121
2.58304	3.7275
2.57534	3.7017
2.56768	3.6479
2.56008	3.6782
2.55251	3.6633
2.54499	3.6318
2.53752	3.603
2.53009	3.6008
2.5227	3.5688
2.51536	3.5637
2.50806	3.5615
2.5008	3.5539
2.49358	3.508
2.4864	3.4966
2.47927	3.4954
2.47218	3.4468
2.46512	3.4404
2.45811	3.4473
2.45114	3.4316
2.4442	3.4036
2.43731	3.4014
2.43045	3.374
2.42363	3.387
2.41685	3.3782
2.41011	3.3791
2.40341	3.3428
2.39674	3.3518
2.39011	3.3296
2.38352	3.3501
2.37696	3.3179
2.37044	3.3398
2.36395	3.2866
2.35751	3.3144
2.35109	3.2441
2.34471	3.3091
2.33836	3.2861
2.33205	3.2939
2.32578	3.2964
2.31953	3.3008
2.31332	3.2837
2.30714	3.2309
2.301	3.2871
2.29489	3.2695
2.28881	3.2622
2.28276	3.3125
2.27675	3.2934
2.27076	3.2847
2.26481	3.2969
2.25889	3.335
2.253	3.3013
2.24714	3.3618
2.24131	3.3828
2.23551	3.3779
2.22974	3.3735
2.224	3.3613
2.21829	3.3794
2.21261	3.4043
2.20696	3.4048
2.20134	3.416
2.19574	3.4145
2.19018	3.4072
2.18464	3.3716
2.17913	3.3975
2.17365	3.3911
2.16819	3.397
2.16277	3.4297
2.15737	3.4307
2.15199	3.416
2.14665	3.4248
2.14133	3.373
2.13603	3.438
2.13077	3.4809
2.12552	3.4316
2.12031	3.4307
2.11512	3.459
2.10995	3.4922
2.10481	3.4785
2.0997	3.4184
2.09461	3.5
2.08954	3.4653
2.0845	3.5019
2.07948	3.5117
