Name: Augite-hypersthene Andesite
Type: Rocks
Class: Igneous
Subclass: Intermediate
Particle Size: 0-75 micrometers
Sample No.: Andesite.H1
Owner: JHU
Origin: Saipan, via Smithsonian (Cat. Number. NMNH 108982-135)
Description: Sample from which the powder is derived is brown on the
Measurement: Directional (10 degree) hemispherical reflectance
X Units: Wavelength (micrometers)
Y Units: Reflectance (percent)
wavelength	value
14.011	0
13.715	2.6981
13.43	1.4986
13.158	2.1509
12.896	1.8839
12.644	2.1192
12.402	3.0384
12.169	4.3319
11.945	4.1486
11.729	3.6961
11.52	3.581
11.319	3.48
11.125	3.1231
10.937	2.8263
10.755	2.9011
10.58	2.7771
10.41	2.6986
10.245	2.5774
10.086	2.528
9.931	2.5164
9.781	2.4408
9.636	2.4096
9.495	2.4828
9.358	2.6268
9.225	3.0421
9.095	3.2384
8.969	3.0834
8.847	2.7478
8.727	2.5122
8.612	2.4447
8.499	2.3011
8.389	2.1522
8.281	2.1452
8.177	2.1145
8.075	2.2359
7.976	2.5706
7.879	2.9543
7.784	3.3115
7.692	3.7174
7.601	4.2075
7.513	4.8155
7.427	5.4928
7.343	6.2388
7.261	6.9236
7.18	7.5644
7.102	8.0906
7.025	8.5146
6.949	9.0152
6.875	9.54
6.803	10.076
6.733	10.469
6.663	10.693
6.596	10.866
6.529	11.163
6.464	11.389
6.4	11.445
6.338	11.24
6.276	10.827
6.216	9.9246
6.157	9.0405
6.099	9.4664
6.042	10.537
5.986	11.868
5.931	13.045
5.878	14.026
5.825	14.661
5.773	15.16
5.722	15.54
5.672	15.796
5.623	16.127
5.574	16.519
5.527	16.93
5.48	17.132
5.434	17.223
5.389	16.861
5.345	16.092
5.301	16.435
5.258	17.565
5.215	18.854
5.174	19.662
5.133	20.192
5.093	20.514
5.053	20.705
5.014	21.073
4.975	21.606
4.937	22.549
4.9	23.713
4.863	24.611
4.827	25.327
4.791	25.881
4.756	26.284
4.721	26.708
4.687	27.124
4.654	27.506
4.62	27.913
4.588	28.28
4.556	28.592
4.524	28.861
4.492	29.046
4.461	29.227
4.431	29.338
4.401	29.434
4.371	29.61
4.342	29.781
4.313	30.019
4.284	30.154
4.256	30.313
4.229	30.441
4.201	30.541
4.174	30.601
4.147	30.687
4.121	30.79
4.095	30.856
4.069	30.889
4.044	30.954
4.019	31.028
3.994	31.053
3.97	31.101
3.945	31.138
3.921	31.145
3.898	31.126
3.875	31.142
3.852	31.113
3.829	31.1
3.806	31.057
3.784	30.97
3.762	30.92
3.74	30.849
3.719	30.721
3.698	30.636
3.677	30.517
3.656	30.436
3.636	30.273
3.615	30.164
3.595	30
3.575	29.854
3.556	29.634
3.536	29.444
3.517	29.275
3.498	29.017
3.479	28.86
3.461	28.627
3.442	28.421
3.424	28.093
3.406	27.75
3.388	27.515
3.371	27.228
3.353	26.975
3.336	26.696
3.319	26.381
3.302	26.06
3.285	25.736
3.269	25.324
3.252	25.002
3.236	24.635
3.22	24.253
3.204	23.95
3.188	23.529
3.173	23.186
3.157	22.763
3.142	22.398
3.127	22.042
3.112	21.743
3.097	21.433
3.082	21.184
3.067	21.029
3.053	20.868
3.039	20.786
3.025	20.615
3.011	20.389
2.997	20.159
2.983	19.952
2.969	19.756
2.956	19.539
2.942	19.383
2.929	19.217
2.916	19.183
2.903	19.112
2.89	19.09
2.877	19.056
2.864	19.005
2.852	18.845
2.839	18.623
2.827	18.404
2.814	18.112
2.802	17.952
2.79	18.051
2.778	18.408
2.766	18.877
2.755	19.343
2.743	20.76
2.731	22.614
2.72	25.226
2.708	28.256
2.697	29.878
2.686	30.805
2.675	31.06
2.664	31.404
2.653	31.659
2.642	31.811
2.632	31.825
2.621	31.753
2.61	31.852
2.6	31.948
2.59	31.881
2.579	31.846
2.569	31.78
2.559	31.824
2.549	31.67
2.539	31.753
2.529	31.778
2.519	31.691
2.509	31.631
2.5	31.708
2.49	31.588
2.481	31.56
2.471	31.532
2.462	31.547
2.452	31.512
2.443	31.434
2.434	31.462
2.425	31.349
2.416	31.39
2.407	31.368
2.398	31.294
2.389	31.204
2.38	31.281
2.372	31.208
2.363	31.117
2.354	31.148
2.346	31.105
2.337	30.993
2.329	31.007
2.321	30.985
2.312	30.96
2.304	30.823
2.296	30.766
2.288	30.805
2.28	30.845
2.272	30.645
2.264	30.694
2.256	30.664
2.248	30.65
2.24	30.612
2.233	30.647
2.225	30.529
2.217	30.569
2.21	30.585
2.202	30.619
2.195	30.551
2.187	30.527
2.18	30.575
2.173	30.511
2.166	30.623
2.158	30.582
2.151	30.592
2.144	30.608
2.137	30.593
2.13	30.605
2.123	30.541
2.116	30.563
2.109	30.69
2.102	30.692
2.095	30.524
2.089	30.579
2.082	30.546
2.06	30.746
2.028	30.307
1.996	30.238
1.964	29.974
1.932	29.629
1.9	29.329
1.868	29.784
1.836	30.115
1.804	30.195
1.772	30.307
1.74	30.695
1.708	30.72
1.676	30.989
1.644	31.01
1.612	31.063
1.58	30.939
1.548	31.02
1.516	31.059
1.484	30.585
1.452	30.918
1.42	30.544
1.388	30.698
1.356	30.643
1.324	30.415
1.292	30.737
1.26	30.147
1.228	30.275
1.196	30.156
1.164	30.029
1.132	29.877
1.1	29.238
1.068	28.471
1.036	27.724
1.004	27.022
0.972	26.126
0.94	26.135
0.908	26.607
0.876	27.294
0.844	28.064
0.812	28.797
0.795	29.239
0.787	29.2
0.779	29.437
0.771	29.039
0.763	29.294
0.755	29.214
0.747	29.066
0.739	29.41
0.731	29.015
0.723	29.228
0.715	28.929
0.707	29.144
0.699	28.71
0.691	28.953
0.683	28.828
0.675	28.638
0.667	28.314
0.659	28.638
0.651	28.33
0.643	28.34
0.635	28.168
0.627	27.876
0.619	27.73
0.611	27.803
0.603	27.334
0.595	27.45
0.587	27.224
0.579	27.115
0.571	27.178
0.563	26.933
0.555	26.924
0.547	26.319
0.539	26.171
0.531	26.072
0.523	25.831
0.515	25.361
0.507	24.927
0.499	24.896
0.491	24.665
0.483	24.31
0.475	23.803
0.467	23.728
0.459	23.463
0.451	22.965
0.443	22.727
0.435	22.171
0.427	21.807
0.419	21.238
0.411	20.462
0.403	19.888
