Name: Olivine (Fo29) (Fe+2,Mg)2SiO4
Type: Mineral
Class: Silicates
Subclass: Nesosilicates (Isolated tetrahedra); (Olivine Group)
Particle Size: Fine  (0-60 Micrometers)
Sample No.: olivine.3
Owner: JHU
Wavelength Range: IR
Origin: Kiglapait Intrusion, Labrador via Trude King #KI3291
Description: Initially, the specimen was contaminated with pyroxene,
Measurement: Bidirectional reflectance
X Units: Wavelength (micrometers)
Y Units: Reflectance (percent)
wavelength	value
25.0442	2.0005
24.3388	1.6218
23.6719	1.4302
23.0407	1.3667
22.4422	1.5894
21.8741	1.6709
21.334	1.9292
20.8199	2.2268
20.33	2.1975
19.8627	2.4492
19.4163	2.6299
18.9896	2.8296
18.5812	2.633
18.19	1.9143
17.815	1.4358
17.4551	1.49
17.1094	1.6558
16.7772	1.7927
16.4576	1.8735
16.15	1.6765
15.8537	1.4768
15.568	1.594
15.2925	1.8311
15.0265	2.0129
14.7697	2.2119
14.5214	2.283
14.2814	2.3791
14.0492	2.5242
13.8244	2.5154
13.6067	2.5493
13.3957	2.5129
13.1912	2.4726
12.9929	2.3664
12.8004	2.2329
12.6135	2.0981
12.432	1.9319
12.2557	1.7678
12.0843	1.6123
11.9176	1.4853
11.7555	1.7678
11.5977	2.0847
11.444	2.4009
11.2944	2.6335
11.1487	2.8013
11.0067	3.0054
10.8682	3.1245
10.7332	2.5093
10.6015	2.1631
10.473	2.6601
10.3476	2.6909
10.2251	2.4983
10.1056	2.3433
9.98873	2.2717
9.87458	2.334
9.763	2.4814
9.65392	2.488
9.54724	2.1228
9.44291	1.6572
9.34082	1.4851
9.24091	1.5093
9.14312	1.5752
9.04739	1.7319
8.95363	1.9011
8.8618	2.0933
8.77183	2.2956
8.68368	2.4643
8.59727	2.5593
8.51257	2.7756
8.42951	2.8809
8.34807	3.0137
8.26819	3.2859
8.18981	3.5788
8.11292	3.7288
8.03745	3.7707
7.96337	3.8293
7.89064	3.8435
7.81924	3.8147
7.74911	3.8193
7.68023	3.875
7.61256	3.9526
7.54608	4.0305
7.48074	4.0918
7.41653	4.1284
7.35341	4.1648
7.29136	4.1882
7.23034	4.198
7.17033	4.217
7.11132	4.2441
7.05327	4.2668
6.99616	4.2798
6.93996	4.2939
6.88467	4.311
6.83024	4.3003
6.77667	4.3088
6.72393	4.272
6.67201	4.2461
6.62089	4.2341
6.57054	4.2185
6.52095	4.187
6.4721	4.1799
6.42398	4.1518
6.37657	4.113
6.32986	4.0571
6.28382	4.0078
6.23845	3.9592
6.19373	3.8889
6.14965	3.7829
6.10619	3.6042
6.06334	3.4863
6.02109	3.5254
5.97942	3.5471
5.93832	3.5417
5.89778	3.5679
5.8578	3.5947
5.81835	3.5713
5.77943	3.4551
5.74103	3.3171
5.70314	3.2646
5.66574	3.3164
5.62883	3.3833
5.5924	3.4163
5.55644	3.439
5.52093	3.4778
5.48588	3.5381
5.45127	3.5898
5.41709	3.6216
5.38334	3.626
5.35	3.6506
5.31708	3.6997
5.28456	3.761
5.25243	3.8115
5.2207	3.8572
5.18934	3.8843
5.15836	3.9062
5.12775	3.9319
5.09749	3.9741
5.0676	4.03
5.03805	4.0986
5.00884	4.1677
4.97998	4.2327
4.95144	4.2795
4.92322	4.3281
4.89533	4.3777
4.86775	4.4158
4.84048	4.4504
4.81351	4.4819
4.78684	4.5139
4.76047	4.5498
4.73439	4.5762
4.70859	4.5923
4.68306	4.6318
4.65782	4.6616
4.63284	4.7009
4.60814	4.7412
4.58369	4.7803
4.5595	4.8113
4.53557	4.8442
4.51188	4.8865
4.48845	4.9192
4.46525	4.9646
4.44229	5.0036
4.41957	5.0486
4.39708	5.0942
4.37481	5.1433
4.35277	5.1828
4.33096	5.2204
4.30935	5.2649
4.28797	5.312
4.26679	5.3559
4.24583	5.4057
4.22506	5.4516
4.2045	5.4953
4.18414	5.5286
4.16398	5.5713
4.14401	5.6152
4.12423	5.6474
4.10464	5.6846
4.08523	5.729
4.066	5.7729
4.04696	5.8152
4.02809	5.8628
4.0094	5.9057
3.99088	5.9475
3.97253	5.9941
3.95435	6.0344
3.93634	6.0701
3.91848	6.1074
3.90079	6.1555
3.88326	6.1933
3.86589	6.2314
3.84867	6.2605
3.8316	6.3049
3.81468	6.3398
3.79791	6.3791
3.78129	6.4265
3.76482	6.4551
3.74848	6.4922
3.73229	6.5261
3.71624	6.5608
3.70032	6.5959
3.68454	6.6257
3.6689	6.6482
3.65338	6.6911
3.638	6.7202
3.62275	6.7427
3.60762	6.7734
3.59262	6.7893
3.57775	6.8183
3.56299	6.8301
3.54836	6.8325
3.53385	6.8476
3.51945	6.8118
3.50517	6.6943
3.49101	6.7529
3.47696	6.7903
3.46303	6.8169
3.4492	6.7944
3.43549	6.727
3.42188	6.5725
3.40838	6.625
3.39499	6.7695
3.38171	6.7734
3.36852	6.845
3.35544	6.9309
3.34246	6.9704
3.32958	6.978
3.3168	6.9792
3.30411	6.9814
3.29153	6.9704
3.27903	6.9614
3.26664	6.946
3.25433	6.9267
3.24212	6.9138
3.23	6.8777
3.21797	6.8611
3.20603	6.8357
3.19418	6.8091
3.18241	6.7754
3.17074	6.7417
3.15914	6.729
3.14763	6.7073
3.13621	6.6643
3.12487	6.6482
3.11361	6.6211
3.10243	6.6062
3.09133	6.6042
3.0803	6.5808
3.06936	6.5625
3.0585	6.5478
3.04771	6.5268
3.037	6.5095
3.02636	6.4897
3.0158	6.4722
3.00531	6.4551
2.99489	6.4563
2.98454	6.427
2.97427	6.4228
2.96407	6.4136
2.95393	6.4172
2.94387	6.4031
2.93387	6.4018
2.92394	6.4023
2.91408	6.3852
2.90429	6.3762
2.89456	6.366
2.88489	6.3347
2.87529	6.3244
2.86576	6.3071
2.85628	6.2729
2.84687	6.2622
2.83752	6.2602
2.82823	6.2397
2.81901	6.2405
2.80984	6.2222
2.80073	6.1897
2.79168	6.178
2.78269	6.2092
2.77376	6.248
2.76488	6.2861
2.75606	6.3738
2.7473	6.4709
2.73859	6.6184
2.72994	6.8291
2.72134	7.1535
2.7128	7.4817
2.70431	7.7793
2.69587	8.018
2.68748	8.1289
2.67915	8.2131
2.67087	8.3027
2.66264	8.3286
2.65446	8.3164
2.64633	8.3169
2.63825	8.3369
2.63021	8.3591
2.62223	8.3232
2.6143	8.3293
2.60641	8.3203
2.59857	8.3301
2.59078	8.3022
2.58304	8.3086
2.57534	8.303
2.56768	8.2793
2.56008	8.2929
2.55251	8.2822
2.54499	8.2641
2.53752	8.2688
2.53009	8.2463
2.5227	8.2339
2.51536	8.2253
2.50806	8.217
2.5008	8.2229
2.49358	8.2253
2.4864	8.207
2.47927	8.2165
2.47218	8.2158
2.46512	8.1848
2.45811	8.1689
2.45114	8.1662
2.4442	8.1731
2.43731	8.1689
2.43045	8.1523
2.42363	8.1562
2.41685	8.1535
2.41011	8.1491
2.40341	8.1345
2.39674	8.1233
2.39011	8.1023
2.38352	8.126
2.37696	8.084
2.37044	8.093
2.36395	8.0881
2.35751	8.084
2.35109	8.1006
2.34471	8.0613
2.33836	8.0574
2.33205	8.0442
2.32578	8.074
2.31953	8.0451
2.31332	8.0569
2.30714	8.0725
2.301	8.0549
2.29489	8.0666
2.28881	8.0588
2.28276	8.0512
2.27675	8.0849
2.27076	8.0764
2.26481	8.1072
2.25889	8.1018
2.253	8.081
2.24714	8.0915
2.24131	8.105
2.23551	8.1181
2.22974	8.1033
2.224	8.0925
2.21829	8.114
2.21261	8.1152
2.20696	8.1091
2.20134	8.1001
2.19574	8.0989
2.19018	8.1394
2.18464	8.1028
2.17913	8.1521
2.17365	8.1089
2.16819	8.1435
2.16277	8.1504
2.15737	8.134
2.15199	8.1572
2.14665	8.1479
2.14133	8.1562
2.13603	8.1711
2.13077	8.1929
2.12552	8.199
2.12031	8.2129
2.11512	8.2209
2.10995	8.2026
2.10481	8.2546
2.0997	8.2617
2.09461	8.2778
2.08954	8.2798
2.0845	8.2751
2.07948	8.2842
