Name: Analcime NaAlSi2O6.H2O
Type: Mineral
Class: Silicates
Subclass: Tectosilicates  (Framework silicates) (Zeolite Group)
Particle Size: Fine (less than 2 Micrometers)
Sample No.: analcime.1
Owner: JHU
Wavelength Range: IR
Origin: Sample from Mt. St. Hilaire, Quebec; donated by W. J. Ehmann
Description: The sample was only available to us as a fine (<60
Measurement: Transmission
X Units: Wavelength (micrometers)
Y Units: Transmittance (percent)
wavelength	value
25.044	45.9686
24.339	42.9003
23.672	39.4979
23.041	30.0868
22.442	20.082
21.874	22.2431
21.334	32.7431
20.82	45.0136
20.33	53.9979
19.863	59.9998
19.416	64.0252
18.99	66.5819
18.581	68.0882
18.19	68.4188
17.815	68.5672
17.455	69.5438
17.109	70.0692
16.777	69.3089
16.458	66.7484
16.15	65.8753
15.854	67.7615
15.568	69.7244
15.292	72.201
15.027	72.41
14.77	72.5369
14.521	69.9632
14.281	67.5692
14.049	64.5228
13.824	59.1317
13.607	52.129
13.396	50.5526
13.191	55.8377
12.993	55.8797
12.8	70.1055
12.614	79.1619
12.432	84.4688
12.256	86.2888
12.084	86.4588
11.918	85.6817
11.755	84.0052
11.598	82.1326
11.444	80.115
11.294	77.9187
11.149	75.4493
11.007	72.1942
10.868	68.0987
10.733	62.504
10.602	55.0028
10.473	44.3617
10.348	31.092
10.225	16.7565
10.106	9.4577
9.989	5.9993
9.875	3.843
9.763	2.9258
9.654	3.085
9.547	4.1623
9.443	6.3381
9.341	10.0766
9.241	14.8462
9.143	18.0969
9.047	20.6291
8.954	23.6144
8.862	28.3032
8.772	34.7611
8.684	41.4076
8.597	47.8685
8.513	55.7621
8.43	63.0531
8.348	68.8773
8.268	73.49
8.19	77.1287
8.113	79.8641
8.037	81.8904
7.963	83.4397
7.891	84.7766
7.819	85.8548
7.749	86.6087
7.68	87.3006
7.613	87.9363
7.546	88.4143
7.481	88.927
7.417	89.2874
7.353	89.5564
7.291	89.78
7.23	89.9749
7.17	90.2476
7.111	90.3972
7.053	90.5383
6.996	90.6668
6.94	90.8255
6.885	90.8865
6.83	90.9402
6.777	91.3079
6.724	91.5242
6.672	91.7966
6.621	92.0335
6.571	92.1502
6.521	92.0188
6.472	91.9548
6.424	91.7278
6.377	91.3865
6.33	91.0188
6.284	90.4382
6.238	89.4407
6.194	86.6267
6.15	74.3768
6.106	70.4505
6.063	80.6912
6.021	85.2268
5.979	88.6712
5.938	90.3386
5.898	91.2756
5.858	91.803
5.818	92.2727
5.779	92.4646
5.741	92.7698
5.703	93.0022
5.666	93.1912
5.629	93.3001
5.592	93.4282
5.556	93.5154
5.521	93.614
5.486	93.7625
5.451	93.9421
5.417	94.0911
5.383	94.0989
5.35	94.2556
5.317	94.3591
5.285	94.4334
5.252	94.509
5.221	94.6057
5.189	94.6887
5.158	94.78
5.128	94.8225
5.097	94.8005
5.068	94.8225
5.038	94.8796
5.009	94.9509
4.98	94.9099
4.951	94.9492
4.923	94.9453
4.895	94.9136
4.868	94.9475
4.84	94.9951
4.814	95.0073
4.787	95.0647
4.76	95.1301
4.734	95.1201
4.709	95.1128
4.683	95.1301
4.658	95.2158
4.633	95.2361
4.608	95.2537
4.584	95.3435
4.56	95.376
4.536	95.3921
4.512	95.3599
4.488	95.3999
4.465	95.447
4.442	95.3694
4.42	95.46
4.397	95.5288
4.375	95.5793
4.353	95.5867
4.331	95.5149
4.309	95.6069
4.288	95.5767
4.267	95.6531
4.246	95.6228
4.225	95.6475
4.205	95.6099
4.184	95.5994
4.164	95.6748
4.144	95.6248
4.124	95.6692
4.105	95.6829
4.085	95.6707
4.066	95.6953
4.047	95.6172
4.028	95.6716
4.009	95.7722
3.991	95.72
3.973	95.6809
3.954	95.7908
3.936	95.6418
3.918	95.6672
3.901	95.6233
3.883	95.6204
3.866	95.511
3.849	95.5139
3.832	95.5413
3.815	95.4814
3.798	95.4192
3.781	95.3867
3.765	95.3533
3.748	95.2615
3.732	95.2314
3.716	95.1653
3.7	95.0652
3.685	95.0459
3.669	94.9758
3.653	94.9209
3.638	94.8545
3.623	94.7107
3.608	94.6191
3.593	94.5547
3.578	94.4636
3.563	94.3816
3.548	94.2835
3.534	94.0935
3.519	93.8416
3.505	93.4258
3.491	93.5127
3.477	93.51
3.463	93.3933
3.449	93.1777
3.435	92.9053
3.422	92.282
3.408	92.2019
3.395	92.5398
3.382	92.374
3.369	92.469
3.355	92.3601
3.342	92.2332
3.33	92.1121
3.317	91.9316
3.304	91.8054
3.292	91.6941
3.279	91.541
3.267	91.2432
3.254	91.0115
3.242	90.8074
3.23	90.5994
3.218	90.3975
3.206	90.1433
3.194	89.8357
3.182	89.553
3.171	89.284
3.159	88.9348
3.148	88.4461
3.136	88.263
3.125	87.8421
3.114	87.4978
3.102	86.8743
3.091	86.4412
3.08	85.9632
3.069	85.6428
3.058	85.0198
3.048	84.7508
3.037	84.2903
3.026	83.9549
3.016	83.4749
3.005	83.0721
2.995	82.3699
2.985	81.7835
2.974	80.9998
2.964	80.0701
2.954	79.2478
2.944	78.574
2.934	77.9339
2.924	77.1463
2.914	76.5257
2.904	75.9803
2.895	75.5936
2.885	75.2054
2.875	74.784
2.866	74.3753
2.856	74.0862
2.847	73.658
2.838	73.1268
2.828	72.3343
2.819	71.6834
2.81	71.7112
2.801	73.1175
2.792	73.2869
2.783	72.3045
2.774	70.6546
2.765	69.699
2.756	72.034
2.747	76.7732
2.739	82.0974
2.73	84.1878
2.721	83.9597
2.713	86.3069
2.704	88.9724
2.696	90.7634
2.687	91.4822
2.679	92.137
2.671	92.3694
2.663	92.4104
2.654	92.6585
2.646	92.7483
2.638	92.7698
2.63	92.9197
2.622	92.9592
2.614	93.158
2.606	92.9783
2.599	92.9592
2.591	93.2654
2.583	93.3416
2.575	93.1306
2.568	93.0359
2.56	93.0437
2.553	92.9099
2.545	92.8904
2.538	92.9021
2.53	92.9148
2.523	92.7332
2.515	92.9793
2.508	93.198
2.501	92.8279
2.494	92.9363
2.486	93.1541
2.479	92.9021
2.472	92.9939
2.465	93.1863
2.458	93.0906
2.451	93.2263
2.444	93.0388
2.437	93.1492
2.43	93.1775
2.424	93.5281
2.417	93.281
2.41	93.4578
2.403	93.5232
2.397	93.5173
2.39	93.3982
2.384	93.3132
2.377	93.3513
2.37	93.4187
2.364	93.2283
2.358	92.9773
2.351	93.2849
2.345	93.4216
2.338	93.1062
2.332	92.9334
2.326	93.157
2.32	93.4773
2.313	93.4138
2.307	93.1775
2.301	93.2937
2.295	93.0701
2.289	93.4529
2.283	93.0642
2.277	93.0408
2.271	93.2351
2.265	93.1453
2.259	93.0046
2.253	93.4031
2.247	93.2029
2.241	93.1287
2.236	93.0046
2.23	93.075
2.224	92.7459
2.218	92.9236
2.213	93.0818
2.207	93.0115
2.201	92.9802
2.196	92.3992
2.19	93.1336
2.185	92.7273
2.179	92.7849
2.174	93.072
2.168	93.115
2.163	93.0818
2.157	93.0193
2.152	92.4099
2.147	92.8455
2.141	92.5212
2.136	92.533
2.131	92.8474
2.126	92.49
2.12	92.7224
2.115	92.5212
2.11	92.6697
2.105	92.488
2.1	92.9861
2.095	92.6111
2.09	92.9334
2.085	92.7361
2.079	92.281
