Name: Dolomite CaMg(CO3)2
Type: Mineral
Class: Carbonates
Particle Size: Coarse  (74-250 Micrometers)
Sample No.: dolomite.1
Owner: JHU
Wavelength Range: IR
Origin: Sample from Oberdorf, Styria, Austria via the Smithsonian
Description: The sample was a single white crystal, 3 cm x 2 cm x 2
Measurement: Bidirectional reflectance
X Units: Wavelength (micrometers)
Y Units: Reflectance (percent)
wavelength	value
25.0442	6.582
24.3388	6.4673
23.6719	6.2768
23.0407	5.333
22.4422	4.1982
21.8741	2.8154
21.334	1.5457
20.8199	0.7385
20.33	0.4536
19.8627	0.4219
19.4163	0.3906
18.9896	0.5342
18.5812	0.6077
18.19	0.6851
17.815	0.7273
17.4551	0.7881
17.1094	0.8633
16.7772	0.9421
16.4576	1.1499
16.15	1.3821
15.8537	1.4194
15.568	1.2661
15.2925	1.2749
15.0265	1.4167
14.7697	1.5405
14.5214	1.6018
14.2814	1.6072
14.0492	1.4116
13.8244	1.1782
13.6067	0.6895
13.3957	1.4478
13.1912	2.6086
12.9929	3.4866
12.8004	3.7383
12.6135	3.9954
12.432	4.1106
12.2557	3.9521
12.0843	3.6814
11.9176	3.2163
11.7555	1.9714
11.5977	1.8923
11.444	1.8435
11.2944	3.6218
11.1487	5.7954
11.0067	3.571
10.8682	2.6155
10.7332	2.5703
10.6015	2.6069
10.473	2.7222
10.3476	2.7363
10.2251	2.5989
10.1056	2.4851
9.98873	2.5054
9.87458	2.3713
9.763	2.1013
9.65392	1.9795
9.54724	2.1582
9.44291	2.3181
9.34082	1.9773
9.24091	2.0134
9.14312	2.1492
9.04739	1.8445
8.95363	1.834
8.8618	1.7141
8.77183	1.731
8.68368	1.6223
8.59727	1.6665
8.51257	1.5127
8.42951	1.3843
8.34807	1.4233
8.26819	1.5293
8.18981	1.4709
8.11292	1.373
8.03745	1.427
7.96337	1.447
7.89064	1.4712
7.81924	1.479
7.74911	1.4441
7.68023	1.4729
7.61256	1.5381
7.54608	1.5791
7.48074	1.6094
7.41653	1.6836
7.35341	1.771
7.29136	1.8809
7.23034	2.0159
7.17033	2.2246
7.11132	2.6025
7.05327	3.1477
6.99616	4.1072
6.93996	4.2639
6.88467	4.4018
6.83024	4.6365
6.77667	4.8408
6.72393	5.1003
6.67201	5.4814
6.62089	6.4458
6.57054	7.3286
6.52095	7.9951
6.4721	8.459
6.42398	8.5085
6.37657	8.0605
6.32986	5.2126
6.28382	3.6948
6.23845	2.7405
6.19373	2.2915
6.14965	1.7659
6.10619	1.0576
6.06334	0.533
6.02109	0.2781
5.97942	0.3223
5.93832	0.4014
5.89778	0.4824
5.8578	0.5486
5.81835	0.5889
5.77943	0.6157
5.74103	0.6433
5.70314	0.7065
5.66574	0.697
5.62883	0.6462
5.5924	0.606
5.55644	0.5369
5.52093	0.4858
5.48588	0.4641
5.45127	0.6619
5.41709	1.314
5.38334	2.0188
5.35	2.5491
5.31708	2.8569
5.28456	3.1565
5.25243	3.7768
5.2207	4.4473
5.18934	4.9285
5.15836	5.4097
5.12775	5.7348
5.09749	5.9084
5.0676	4.7912
5.03805	6.03
5.00884	6.7251
4.97998	6.9253
4.95144	7.0615
4.92322	7.1897
4.89533	7.324
4.86775	7.4153
4.84048	7.4311
4.81351	7.3909
4.78684	7.3252
4.76047	7.2251
4.73439	7.0456
4.70859	6.5744
4.68306	5.6362
4.65782	3.8691
4.63284	3.2803
4.60814	3.2366
4.58369	3.864
4.5595	4.5947
4.53557	5.0842
4.51188	5.4765
4.48845	6.3999
4.46525	6.0337
4.44229	5.2439
4.41957	5.4529
4.39708	6.2019
4.37481	6.8403
4.35277	7.2473
4.33096	6.1665
4.30935	5.7004
4.28797	5.5793
4.26679	5.6802
4.24583	5.9663
4.22506	5.9922
4.2045	6.2312
4.18414	6.3132
4.16398	5.9817
4.14401	5.5437
4.12423	5.5276
4.10464	5.3164
4.08523	4.9458
4.066	4.3015
4.04696	3.53
4.02809	2.6191
4.0094	1.6851
3.99088	1.0559
3.97253	0.7727
3.95435	0.7126
3.93634	0.7083
3.91848	0.7273
3.90079	0.8076
3.88326	0.8809
3.86589	0.927
3.84867	1.2805
3.8316	1.4556
3.81468	1.0579
3.79791	0.9548
3.78129	1.2539
3.76482	1.8318
3.74848	3.0857
3.73229	4.6008
3.71624	5.2021
3.70032	5.6838
3.68454	6.1994
3.6689	6.5012
3.65338	6.6804
3.638	6.7807
3.62275	6.7986
3.60762	6.7629
3.59262	6.7026
3.57775	6.5752
3.56299	6.0847
3.54836	4.5283
3.53385	4.8989
3.51945	3.883
3.50517	2.261
3.49101	1.1914
3.47696	0.9521
3.46303	0.8501
3.4492	0.7996
3.43549	0.8962
3.42188	1.0769
3.40838	1.1448
3.39499	1.2195
3.38171	1.3391
3.36852	1.4612
3.35544	1.188
3.34246	1.0588
3.32958	1.0486
3.3168	0.9741
3.30411	0.9077
3.29153	2.1226
3.27903	3.6619
3.26664	4.4114
3.25433	4.9563
3.24212	5.4321
3.23	5.8176
3.21797	6.1108
3.20603	6.4035
3.19418	6.5762
3.18241	6.7698
3.17074	6.9165
3.15914	6.9795
3.14763	6.6802
3.13621	6.3728
3.12487	6.3857
3.11361	6.4419
3.10243	6.4731
3.09133	6.2827
3.0803	6.1548
3.06936	6.4001
3.0585	6.7473
3.04771	6.9165
3.037	7.0017
3.02636	7.3371
3.0158	7.6831
3.00531	7.9702
2.99489	8.0749
2.98454	8.1206
2.97427	8.2549
2.96407	8.3877
2.95393	8.4956
2.94387	8.5493
2.93387	8.5835
2.92394	8.6274
2.91408	8.6804
2.90429	8.7578
2.89456	8.8305
2.88489	8.8696
2.87529	8.9094
2.86576	8.9333
2.85628	8.9721
2.84687	8.9809
2.83752	8.9721
2.82823	8.9475
2.81901	8.8672
2.80984	8.6655
2.80073	8.2912
2.79168	7.8213
2.78269	7.3188
2.77376	6.6826
2.76488	6.4175
2.75606	6.8569
2.7473	7.3967
2.73859	7.841
2.72994	8.3847
2.72134	8.4817
2.7128	8.8655
2.70431	9.1819
2.69587	9.1648
2.68748	9.1137
2.67915	9.352
2.67087	9.604
2.66264	9.8955
2.65446	10.0444
2.64633	10.1364
2.63825	10.1855
2.63021	10.1404
2.62223	10.2395
2.6143	10.2556
2.60641	10.2138
2.59857	10.2473
2.59078	10.2231
2.58304	10.1391
2.57534	10.0776
2.56768	9.9101
2.56008	9.6592
2.55251	9.4438
2.54499	8.8764
2.53752	7.9487
2.53009	7.0561
2.5227	6.4966
2.51536	6.2302
2.50806	6.3354
2.5008	6.5749
2.49358	6.8232
2.4864	7.1387
2.47927	7.4697
2.47218	7.5801
2.46512	7.574
2.45811	7.6953
2.45114	7.9302
2.4442	8.251
2.43731	8.6479
2.43045	8.9013
2.42363	9.1636
2.41685	9.4428
2.41011	9.5781
2.40341	9.6426
2.39674	9.7314
2.39011	9.8181
2.38352	9.8525
2.37696	9.9294
2.37044	10.0259
2.36395	10.0024
2.35751	9.9082
2.35109	9.7153
2.34471	9.1555
2.33836	8.5749
2.33205	8.0654
2.32578	7.7519
2.31953	7.7031
2.31332	7.7851
2.30714	7.8764
2.301	8.0066
2.29489	8.1716
2.28881	8.2939
2.28276	8.3723
2.27675	8.4729
2.27076	8.4912
2.26481	8.626
2.25889	8.7973
2.253	9.0158
2.24714	9.1919
2.24131	9.4065
2.23551	9.5552
2.22974	9.6047
2.224	9.6382
2.21829	9.7319
2.21261	9.8196
2.20696	9.8056
2.20134	9.8774
2.19574	9.8847
2.19018	10.0393
2.18464	9.9944
2.17913	10.0276
2.17365	10.0307
2.16819	10.0002
2.16277	10.0488
2.15737	10.0022
2.15199	9.9592
2.14665	9.9052
2.14133	9.8818
2.13603	9.917
2.13077	9.9231
2.12552	10.001
2.12031	10.0276
2.11512	10.0315
2.10995	10.133
2.10481	10.1145
2.0997	10.1447
2.09461	10.1885
2.08954	10.1938
2.0845	10.2324
2.07948	10.165
