Name: Talc Mg3Si4O10(OH)2
Type: Mineral
Class: Silicates
Subclass: Phyllosilicates (Sheets silicates);  (Talc/Pyrophyllite Group)
Particle Size: Fine  (0 - 74 Micrometers)
Sample No.: talc.1
Owner: JHU
Wavelength Range: IR
Origin: Feiser Mine, Ruby Mountains, Montana, USA via Jim Crowley,
Description: The hand sample was massive, compact, translucent,
Measurement: Bidirectional reflectance
X Units: Wavelength (micrometers)
Y Units: Reflectance (percent)
wavelength	value
25.0442	2.8359
24.3388	3.4394
23.6719	3.332
23.0407	3.3166
22.4422	3.843
21.8741	4.0351
21.334	5.2541
20.8199	5.853
20.33	6.1936
19.8627	5.5664
19.4163	6.4302
18.9896	6.6614
18.5812	6.2485
18.19	6.1982
17.815	6.4153
17.4551	5.6911
17.1094	3.0859
16.7772	1.312
16.4576	1.3948
16.15	1.8616
15.8537	2.1616
15.568	2.2029
15.2925	1.978
15.0265	2.1077
14.7697	3.5373
14.5214	3.1826
14.2814	1.0469
14.0492	1.2251
13.8244	2.1169
13.6067	2.7651
13.3957	3.1833
13.1912	3.373
12.9929	3.2593
12.8004	2.6919
12.6135	3.0569
12.432	3.3672
12.2557	3.5574
12.0843	3.7717
11.9176	3.8423
11.7555	3.571
11.5977	3.1863
11.444	2.9248
11.2944	2.8296
11.1487	2.698
11.0067	2.5635
10.8682	2.4526
10.7332	2.3345
10.6015	2.1655
10.473	2.0671
10.3476	2.0764
10.2251	2.0698
10.1056	2.1721
9.98873	2.3892
9.87458	3.1077
9.763	4.0986
9.65392	4.6929
9.54724	4.8523
9.44291	4.4558
9.34082	4.9495
9.24091	5.4587
9.14312	5.7915
9.04739	6.2849
8.95363	6.6147
8.8618	6.8032
8.77183	7.0635
8.68368	7.4675
8.59727	7.3406
8.51257	6.7085
8.42951	5.5881
8.34807	4.3371
8.26819	3.1648
8.18981	2.4324
8.11292	2.0059
8.03745	1.8809
7.96337	1.9287
7.89064	2.217
7.81924	2.3777
7.74911	2.4123
7.68023	2.5273
7.61256	2.8352
7.54608	3.2891
7.48074	3.7334
7.41653	3.9438
7.35341	4.2336
7.29136	4.5334
7.23034	4.5474
7.17033	4.6965
7.11132	5.042
7.05327	5.3906
6.99616	5.7842
6.93996	6.2121
6.88467	6.6499
6.83024	6.9284
6.77667	7.7348
6.72393	8.3454
6.67201	8.6738
6.62089	8.6408
6.57054	8.4475
6.52095	8.5681
6.4721	9.0068
6.42398	9.1106
6.37657	9.2263
6.32986	9.2102
6.28382	9.2644
6.23845	9.0581
6.19373	8.4197
6.14965	7.6902
6.10619	6.1501
6.06334	5.2717
6.02109	5.0625
5.97942	4.6074
5.93832	5.9536
5.89778	6.9204
5.8578	5.8931
5.81835	6.6155
5.77943	7.4311
5.74103	7.477
5.70314	7.0066
5.66574	6.6177
5.62883	6.9663
5.5924	6.6003
5.55644	5.8535
5.52093	5.5427
5.48588	5.3391
5.45127	5.9714
5.41709	6.8303
5.38334	6.6675
5.35	6.6736
5.31708	7.2876
5.28456	7.656
5.25243	7.3183
5.2207	6.7283
5.18934	7.0967
5.15836	7.8379
5.12775	8.1443
5.09749	9.5359
5.0676	11.5349
5.03805	12.5112
5.00884	12.7512
4.97998	12.7954
4.95144	12.4677
4.92322	12.6355
4.89533	13.3874
4.86775	13.924
4.84048	14.081
4.81351	14.2121
4.78684	14.4218
4.76047	14.8486
4.73439	15.0273
4.70859	14.7712
4.68306	14.8974
4.65782	14.9973
4.63284	15.363
4.60814	16.1347
4.58369	16.6272
4.5595	16.8147
4.53557	16.9419
4.51188	16.9841
4.48845	17.0246
4.46525	17.0505
4.44229	17.1928
4.41957	17.5449
4.39708	17.7573
4.37481	17.9528
4.35277	18.0131
4.33096	18.0654
4.30935	18.0847
4.28797	18.1452
4.26679	18.1997
4.24583	18.2617
4.22506	18.291
4.2045	18.3056
4.18414	18.3117
4.16398	18.3271
4.14401	18.3315
4.12423	18.3459
4.10464	18.3554
4.08523	18.362
4.066	18.3603
4.04696	18.3732
4.02809	18.4213
4.0094	18.4851
3.99088	18.531
3.97253	18.5405
3.95435	18.5427
3.93634	18.5502
3.91848	18.5615
3.90079	18.6081
3.88326	18.6435
3.86589	18.6818
3.84867	18.7043
3.8316	18.7324
3.81468	18.7531
3.79791	18.7812
3.78129	18.8356
3.76482	18.8588
3.74848	18.8681
3.73229	18.873
3.71624	18.8449
3.70032	18.809
3.68454	18.7072
3.6689	18.7106
3.65338	18.664
3.638	18.6293
3.62275	18.6054
3.60762	18.603
3.59262	18.5742
3.57775	18.5388
3.56299	18.4846
3.54836	18.3859
3.53385	18.2558
3.51945	18.0383
3.50517	17.6196
3.49101	17.6359
3.47696	17.6892
3.46303	17.7565
3.4492	17.6086
3.43549	17.3313
3.42188	16.8139
3.40838	16.7111
3.39499	16.8357
3.38171	16.509
3.36852	16.0527
3.35544	15.0478
3.34246	16.2976
3.32958	16.0776
3.3168	14.7033
3.30411	14.8864
3.29153	16.1999
3.27903	16.2597
3.26664	16.551
3.25433	16.4846
3.24212	16.384
3.23	16.206
3.21797	16.0207
3.20603	15.8701
3.19418	15.6059
3.18241	15.3337
3.17074	15.071
3.15914	14.8315
3.14763	14.7981
3.13621	14.9414
3.12487	14.8962
3.11361	14.7514
3.10243	14.5422
3.09133	14.3557
3.0803	14.2075
3.06936	14.1049
3.0585	13.9121
3.04771	13.7705
3.037	13.5395
3.02636	13.4289
3.0158	13.3154
3.00531	13.0898
2.99489	12.8623
2.98454	12.636
2.97427	12.5073
2.96407	12.3134
2.95393	12.1508
2.94387	12.0322
2.93387	11.988
2.92394	11.9619
2.91408	11.9179
2.90429	11.8999
2.89456	11.894
2.88489	11.8872
2.87529	11.854
2.86576	11.8349
2.85628	11.7334
2.84687	11.5727
2.83752	11.4175
2.82823	11.1367
2.81901	10.7578
2.80984	10.0722
2.80073	9.5727
2.79168	8.7851
2.78269	9.0854
2.77376	9.5254
2.76488	9.832
2.75606	10.2065
2.7473	10.1294
2.73859	9.5844
2.72994	6.8081
2.72134	1.814
2.7128	7.8884
2.70431	13.7439
2.69587	16.0117
2.68748	17.03
2.67915	17.915
2.67087	18.9985
2.66264	19.4804
2.65446	19.5227
2.64633	19.4189
2.63825	19.5253
2.63021	19.5581
2.62223	19.4526
2.6143	19.4968
2.60641	19.3173
2.59857	19.1652
2.59078	19.0791
2.58304	18.7521
2.57534	18.4548
2.56768	18.6362
2.56008	18.7963
2.55251	18.7036
2.54499	19.1389
2.53752	18.7187
2.53009	18.5109
2.5227	18.6279
2.51536	18.3188
2.50806	18.9179
2.5008	18.4465
2.49358	18.551
2.4864	19.0317
2.47927	19.0908
2.47218	17.9113
2.46512	17.0019
2.45811	17.7727
2.45114	18.2026
2.4442	18.4199
2.43731	18.2817
2.43045	18.5527
2.42363	18.3732
2.41685	19.1542
2.41011	19.3576
2.40341	18.83
2.39674	16.343
2.39011	15.4814
2.38352	16.0744
2.37696	16.8232
2.37044	17.916
2.36395	18.8417
2.35751	18.8417
2.35109	19.1894
2.34471	19.6362
2.33836	19.5449
2.33205	18.7124
2.32578	16.0449
2.31953	14.4785
2.31332	10.2685
2.30714	12.0669
2.301	15.0468
2.29489	15.5254
2.28881	13.0908
2.28276	16.2519
2.27675	17.979
2.27076	18.9072
2.26481	19.5
2.25889	19.9497
2.253	20.1987
2.24714	20.3637
2.24131	20.4072
2.23551	20.1474
2.22974	19.854
2.224	20.4145
2.21829	20.6982
2.21261	20.7001
2.20696	20.7236
2.20134	20.6957
2.19574	20.748
2.19018	20.7675
2.18464	20.7412
2.17913	20.5097
2.17365	20.5165
2.16819	20.6249
2.16277	20.6992
2.15737	20.7055
2.15199	20.6933
2.14665	20.5292
2.14133	20.4677
2.13603	20.4462
2.13077	20.3261
2.12552	20.372
2.12031	20.6269
2.11512	20.4746
2.10995	20.6757
2.10481	20.7114
2.0997	20.6762
2.09461	20.6938
2.08954	20.6386
2.0845	20.5434
2.07948	20.3437
