Name: Olivine (Fo92) (Fe+2,Mg)2SiO4
Type: Mineral
Class: Silicates
Subclass: Nesosilicates (Isolated tetrahedra); (Olivine Group)
Particle Size: Fine  (0-74 Micrometers)
Sample No.: olivine.13
Owner: JHU
Wavelength Range: IR
Origin: Rockport, Massachusetts via the Smithsonian (sample no.
Description: The sample was a large black fragment. Millimeter-wide
Measurement: Bidirectional reflectance
X Units: Wavelength (micrometers)
Y Units: Reflectance (percent)
wavelength	value
25.0442	1.4983
24.3388	1.5684
23.6719	1.7415
23.0407	1.946
22.4422	1.8066
21.8741	1.6899
21.334	1.7664
20.8199	1.7197
20.33	1.8611
19.8627	1.8953
19.4163	1.7788
18.9896	1.7285
18.5812	1.5881
18.19	1.4919
17.815	1.5266
17.4551	1.5269
17.1094	1.7095
16.7772	1.7507
16.4576	1.71
16.15	1.7493
15.8537	1.7881
15.568	2.0681
15.2925	2.2532
15.0265	2.5818
14.7697	2.8643
14.5214	2.9788
14.2814	2.9922
14.0492	3.1797
13.8244	3.3032
13.6067	3.3484
13.3957	3.4421
13.1912	3.3091
12.9929	2.9221
12.8004	2.9473
12.6135	2.8516
12.432	2.5332
12.2557	2.0532
12.0843	1.4834
11.9176	1.6523
11.7555	1.7554
11.5977	1.9568
11.444	1.959
11.2944	1.9634
11.1487	2.032
11.0067	2.0452
10.8682	1.7231
10.7332	1.6431
10.6015	1.7485
10.473	1.7815
10.3476	1.5703
10.2251	1.5339
10.1056	1.5295
9.98873	1.5984
9.87458	1.6899
9.763	1.6147
9.65392	1.512
9.54724	1.5227
9.44291	1.5798
9.34082	1.5789
9.24091	1.6404
9.14312	1.9653
9.04739	2.3193
8.95363	2.4573
8.8618	2.3457
8.77183	2.7788
8.68368	3.3396
8.59727	3.6448
8.51257	3.8271
8.42951	4.0293
8.34807	4.2712
8.26819	4.4809
8.18981	4.6384
8.11292	4.7056
8.03745	4.7363
7.96337	4.7512
7.89064	4.78
7.81924	4.8191
7.74911	4.9143
7.68023	5.03
7.61256	5.1243
7.54608	5.1833
7.48074	5.2239
7.41653	5.2436
7.35341	5.2663
7.29136	5.2634
7.23034	5.2348
7.17033	5.2256
7.11132	5.2395
7.05327	5.23
6.99616	5.2549
6.93996	5.2712
6.88467	5.2847
6.83024	5.2881
6.77667	5.2856
6.72393	5.3122
6.67201	5.3447
6.62089	5.3867
6.57054	5.4128
6.52095	5.4355
6.4721	5.4368
6.42398	5.4172
6.37657	5.3891
6.32986	5.3635
6.28382	5.3247
6.23845	5.2607
6.19373	5.1623
6.14965	4.9795
6.10619	4.77
6.06334	4.7715
6.02109	4.8757
5.97942	4.8872
5.93832	4.8874
5.89778	4.9172
5.8578	4.9092
5.81835	4.8008
5.77943	4.6391
5.74103	4.5378
5.70314	4.5222
5.66574	4.6169
5.62883	4.6555
5.5924	4.6992
5.55644	4.7449
5.52093	4.8054
5.48588	4.8711
5.45127	4.8984
5.41709	4.9194
5.38334	4.9646
5.35	5.0163
5.31708	5.0867
5.28456	5.1335
5.25243	5.1616
5.2207	5.1916
5.18934	5.259
5.15836	5.3232
5.12775	5.394
5.09749	5.457
5.0676	5.5071
5.03805	5.5508
5.00884	5.5901
4.97998	5.6169
4.95144	5.6579
4.92322	5.6936
4.89533	5.74
4.86775	5.7722
4.84048	5.8083
4.81351	5.8472
4.78684	5.873
4.76047	5.9131
4.73439	5.9426
4.70859	5.9695
4.68306	6.0054
4.65782	6.0408
4.63284	6.0827
4.60814	6.1289
4.58369	6.1689
4.5595	6.1999
4.53557	6.2324
4.51188	6.27
4.48845	6.3015
4.46525	6.342
4.44229	6.3828
4.41957	6.4258
4.39708	6.4651
4.37481	6.5012
4.35277	6.551
4.33096	6.5842
4.30935	6.6316
4.28797	6.6697
4.26679	6.7214
4.24583	6.7497
4.22506	6.7937
4.2045	6.8379
4.18414	6.875
4.16398	6.9126
4.14401	6.9431
4.12423	6.9883
4.10464	7.0217
4.08523	7.0603
4.066	7.0969
4.04696	7.1269
4.02809	7.1577
4.0094	7.2087
3.99088	7.2378
3.97253	7.2817
3.95435	7.3169
3.93634	7.3518
3.91848	7.4004
3.90079	7.4367
3.88326	7.4663
3.86589	7.4914
3.84867	7.5178
3.8316	7.5534
3.81468	7.5842
3.79791	7.6277
3.78129	7.6406
3.76482	7.6794
3.74848	7.7007
3.73229	7.7261
3.71624	7.7495
3.70032	7.779
3.68454	7.7859
3.6689	7.8083
3.65338	7.8266
3.638	7.8452
3.62275	7.8721
3.60762	7.8877
3.59262	7.904
3.57775	7.9336
3.56299	7.9424
3.54836	7.9431
3.53385	7.9555
3.51945	7.9553
3.50517	7.914
3.49101	7.9399
3.47696	7.9541
3.46303	7.9726
3.4492	7.9619
3.43549	7.9468
3.42188	7.8835
3.40838	7.8857
3.39499	7.9529
3.38171	7.9595
3.36852	7.9963
3.35544	8.042
3.34246	8.0686
3.32958	8.083
3.3168	8.0876
3.30411	8.1079
3.29153	8.0976
3.27903	8.1147
3.26664	8.0986
3.25433	8.0906
3.24212	8.0979
3.23	8.091
3.21797	8.0864
3.20603	8.0805
3.19418	8.0627
3.18241	8.0654
3.17074	8.0698
3.15914	8.0517
3.14763	8.0595
3.13621	8.031
3.12487	8.0239
3.11361	8.0276
3.10243	8.0388
3.09133	8.0198
3.0803	8.0354
3.06936	8.0119
3.0585	7.9856
3.04771	7.9785
3.037	7.9707
3.02636	7.9575
3.0158	7.9321
3.00531	7.9245
2.99489	7.9143
2.98454	7.9258
2.97427	7.8882
2.96407	7.8723
2.95393	7.863
2.94387	7.853
2.93387	7.8313
2.92394	7.8352
2.91408	7.8242
2.90429	7.8271
2.89456	7.8247
2.88489	7.812
2.87529	7.8127
2.86576	7.7964
2.85628	7.7756
2.84687	7.7138
2.83752	7.605
2.82823	7.4577
2.81901	7.3508
2.80984	7.2378
2.80073	7.1145
2.79168	7.0198
2.78269	6.9265
2.77376	6.823
2.76488	5.7429
2.75606	7.0014
2.7473	7.4953
2.73859	8.2983
2.72994	8.6711
2.72134	8.7893
2.7128	8.873
2.70431	8.9087
2.69587	8.9419
2.68748	8.9704
2.67915	8.9853
2.67087	9.0215
2.66264	9.04
2.65446	9.0339
2.64633	9.0234
2.63825	9.0486
2.63021	9.0344
2.62223	9.011
2.6143	9.0532
2.60641	9.0134
2.59857	9.0613
2.59078	9.0425
2.58304	9.0488
2.57534	9.0644
2.56768	9.052
2.56008	9.049
2.55251	9.0549
2.54499	9.0635
2.53752	9.0552
2.53009	9.0476
2.5227	9.0276
2.51536	9.0127
2.50806	9.0498
2.5008	9.0464
2.49358	9.0583
2.4864	9.0793
2.47927	9.0698
2.47218	9.0464
2.46512	9.0625
2.45811	9.0166
2.45114	9.0635
2.4442	9.0556
2.43731	9.049
2.43045	9.0525
2.42363	9.0752
2.41685	9.0486
2.41011	9.0925
2.40341	9.0613
2.39674	9.0356
2.39011	9.0776
2.38352	9.0837
2.37696	9.0483
2.37044	9.0639
2.36395	9.0476
2.35751	9.049
2.35109	9.0542
2.34471	9.0007
2.33836	9.0322
2.33205	9.0195
2.32578	9.0039
2.31953	9.0495
2.31332	9.0449
2.30714	9.0798
2.301	9.0635
2.29489	9.0432
2.28881	9.1108
2.28276	9.0471
2.27675	9.0625
2.27076	9.0622
2.26481	9.0669
2.25889	9.0881
2.253	9.0625
2.24714	9.0483
2.24131	9.0246
2.23551	9.102
2.22974	9.0715
2.224	9.071
2.21829	9.0454
2.21261	9.0405
2.20696	9.04
2.20134	9.0495
2.19574	9.0183
2.19018	9.0469
2.18464	8.999
2.17913	9.0525
2.17365	9.0161
2.16819	8.9944
2.16277	9.083
2.15737	9.0842
2.15199	9.042
2.14665	8.9941
2.14133	8.9912
2.13603	8.9897
2.13077	8.9885
2.12552	9.0229
2.12031	9.0244
2.11512	9.0132
2.10995	9.0124
2.10481	9.0166
2.0997	8.9907
2.09461	9.0141
2.08954	9.0307
2.0845	9.0395
2.07948	8.997
