Name: Ilmenite Fe+2TiO3
Type: Mineral
Class: Oxides
Subclass: (Hematite Group)
Particle Size: Fine  (Less than 2 micrometers)
Sample No.: ilmenite.1
Owner: JHU
Wavelength Range: IR
Origin: Ilmen Mountains, Urals, USSR via the Smithsonian (sample no.
Description: The sample consisted of two large and several smaller
Measurement: Transmission
X Units: Wavelength (micrometers)
Y Units: Transmittance (percent)
wavelength	value
25.0442	65.8006
24.3388	60.8143
23.6719	54.9647
23.0407	48.5946
22.4422	44.7753
21.8741	43.7391
21.334	44.1483
20.8199	43.8358
20.33	42.1864
19.8627	39.202
19.4163	34.8734
18.9896	30.8945
18.5812	28.4047
18.19	27.2568
17.815	27.5273
17.4551	28.7157
17.1094	30.2948
16.7772	32.1269
16.4576	34.016
16.15	35.9491
15.8537	38.2987
15.568	40.6723
15.2925	43.2577
15.0265	45.3749
14.7697	47.0028
14.5214	48.0243
14.2814	49.1923
14.0492	51.7347
13.8244	56.8221
13.6067	62.9786
13.3957	68.5809
13.1912	72.753
12.9929	75.8252
12.8004	78.3995
12.6135	80.6172
12.432	82.4661
12.2557	83.8741
12.0843	85.0186
11.9176	86.0164
11.7555	86.8889
11.5977	87.5037
11.444	87.8015
11.2944	88.2097
11.1487	88.6377
11.0067	88.99
10.8682	89.3887
10.7332	89.5584
10.6015	89.7569
10.473	89.9666
10.3476	90.2073
10.2251	90.1721
10.1056	90.1421
9.98873	90.1045
9.87458	90.2246
9.763	90.0969
9.65392	90.0774
9.54724	90.1809
9.44291	90.2688
9.34082	90.3645
9.24091	90.3787
9.14312	90.3399
9.04739	90.1907
8.95363	90.2002
8.8618	90.3386
8.77183	90.614
8.68368	90.4631
8.59727	90.3677
8.51257	90.4534
8.42951	90.532
8.34807	90.5369
8.26819	90.4373
8.18981	90.3132
8.11292	90.1594
8.03745	89.989
7.96337	89.7908
7.89064	89.5725
7.81924	89.2656
7.74911	89.0193
7.68023	88.7849
7.61256	88.5008
7.54608	88.2556
7.48074	87.9534
7.41653	87.7595
7.35341	87.5252
7.29136	87.177
7.23034	86.9597
7.17033	86.666
7.11132	86.3435
7.05327	86.2249
6.99616	85.9707
6.93996	85.7613
6.88467	85.5049
6.83024	85.3125
6.77667	85.2566
6.72393	85.0188
6.67201	84.7776
6.62089	84.4392
6.57054	84.2635
6.52095	83.7522
6.4721	83.4373
6.42398	83.2151
6.37657	82.7703
6.32986	82.4134
6.28382	82.1302
6.23845	81.8733
6.19373	81.5247
6.14965	81.1219
6.10619	80.8826
6.06334	80.5601
6.02109	80.5013
5.97942	80.552
5.93832	80.6038
5.89778	80.4148
5.8578	80.0564
5.81835	79.9978
5.77943	79.5564
5.74103	79.2976
5.70314	79.0965
5.66574	78.7801
5.62883	78.5091
5.5924	78.2063
5.55644	77.9651
5.52093	77.7225
5.48588	77.4349
5.45127	77.1595
5.41709	76.9451
5.38334	76.5975
5.35	76.3597
5.31708	76.0125
5.28456	75.7576
5.25243	75.4871
5.2207	75.2034
5.18934	74.9354
5.15836	74.6849
5.12775	74.4168
5.09749	74.1043
5.0676	73.8445
5.03805	73.5677
5.00884	73.2982
4.97998	73.0257
4.95144	72.7681
4.92322	72.4769
4.89533	72.1822
4.86775	71.9109
4.84048	71.6739
4.81351	71.4117
4.78684	71.1588
4.76047	70.8961
4.73439	70.5579
4.70859	70.3001
4.68306	70.0284
4.65782	69.8238
4.63284	69.5386
4.60814	69.3096
4.58369	69.0501
4.5595	68.7891
4.53557	68.4971
4.51188	68.2235
4.48845	67.9368
4.46525	67.6812
4.44229	67.4903
4.41957	67.2484
4.39708	66.9471
4.37481	66.6937
4.35277	66.4178
4.33096	66.1678
4.30935	65.9337
4.28797	65.7132
4.26679	65.4598
4.24583	65.1585
4.22506	64.9066
4.2045	64.658
4.18414	64.3848
4.16398	64.1414
4.14401	63.9112
4.12423	63.6563
4.10464	63.37
4.08523	63.138
4.066	62.8936
4.04696	62.6485
4.02809	62.3939
4.0094	62.1014
3.99088	61.8514
3.97253	61.6219
3.95435	61.3914
3.93634	61.1563
3.91848	60.8944
3.90079	60.6258
3.88326	60.4422
3.86589	60.1922
3.84867	59.9122
3.8316	59.6788
3.81468	59.4063
3.79791	59.1551
3.78129	58.95
3.76482	58.714
3.74848	58.4825
3.73229	58.2054
3.71624	57.9789
3.70032	57.723
3.68454	57.4972
3.6689	57.2679
3.65338	56.9833
3.638	56.7372
3.62275	56.5233
3.60762	56.2784
3.59262	56.0438
3.57775	55.8153
3.56299	55.5462
3.54836	55.2901
3.53385	55.006
3.51945	54.701
3.50517	54.3124
3.49101	54.1612
3.47696	53.963
3.46303	53.7616
3.4492	53.4481
3.43549	53.0721
3.42188	52.672
3.40838	52.6427
3.39499	52.599
3.38171	52.4408
3.36852	52.2606
3.35544	52.1356
3.34246	51.8429
3.32958	51.6307
3.3168	51.4462
3.30411	51.2772
3.29153	51.0265
3.27903	50.7323
3.26664	50.4737
3.25433	50.1866
3.24212	49.9669
3.23	49.7374
3.21797	49.4845
3.20603	49.1942
3.19418	49.0311
3.18241	48.7635
3.17074	48.5575
3.15914	48.2919
3.14763	48.1039
3.13621	47.8905
3.12487	47.6727
3.11361	47.3768
3.10243	47.205
3.09133	46.9301
3.0803	46.6615
3.06936	46.4672
3.0585	46.2938
3.04771	46.056
3.037	45.8646
3.02636	45.663
3.0158	45.4237
3.00531	45.2528
2.99489	45.0023
2.98454	44.7543
2.97427	44.7245
2.96407	44.5004
2.95393	44.3851
2.94387	44.1893
2.93387	43.955
2.92394	43.9203
2.91408	43.8051
2.90429	43.6972
2.89456	43.6015
2.88489	43.5648
2.87529	43.5941
2.86576	43.4579
2.85628	43.4379
2.84687	43.3246
2.83752	43.3349
2.82823	43.3661
2.81901	43.2836
2.80984	43.1952
2.80073	43.1259
2.79168	42.9906
2.78269	42.9672
2.77376	42.91
2.76488	42.8563
2.75606	42.7484
2.7473	42.5849
2.73859	42.5604
2.72994	42.4266
2.72134	42.3612
2.7128	42.1659
2.70431	41.9628
2.69587	41.7562
2.68748	41.5629
2.67915	41.2802
2.67087	41.2655
2.66264	41.1776
2.65446	40.911
2.64633	40.8495
2.63825	40.6332
2.63021	40.5199
2.62223	40.246
2.6143	40.1508
2.60641	40.0624
2.59857	39.9042
2.59078	39.7226
2.58304	39.5414
2.57534	39.4066
2.56768	39.1737
2.56008	39.0087
2.55251	39.0614
2.54499	38.8554
2.53752	38.5624
2.53009	38.4833
2.5227	38.5585
2.51536	38.3075
2.50806	37.9823
2.5008	38.0458
2.49358	37.9149
2.4864	37.6688
2.47927	37.5478
2.47218	37.414
2.46512	37.4384
2.45811	37.0614
2.45114	36.8876
2.4442	36.8202
2.43731	36.7646
2.43045	36.6933
2.42363	36.6034
2.41685	36.5175
2.41011	36.3173
2.40341	36.205
2.39674	36.0585
2.39011	35.9657
2.38352	35.7616
2.37696	35.7284
2.37044	35.6093
2.36395	35.4687
2.35751	35.2509
2.35109	35.161
2.34471	34.9735
2.33836	35.0429
2.33205	34.9931
2.32578	34.9198
2.31953	34.6816
2.31332	34.5087
2.30714	34.4775
2.301	34.3876
2.29489	34.0829
2.28881	33.872
2.28276	34.037
2.27675	33.8066
2.27076	33.7001
2.26481	33.6767
2.25889	33.5116
2.253	33.3007
2.24714	33.3788
2.24131	33.3319
2.23551	32.9618
2.22974	33.0136
2.224	32.9931
2.21829	32.8876
2.21261	32.7001
2.20696	32.6874
2.20134	32.4433
2.19574	32.3046
2.19018	31.8525
2.18464	32.0126
2.17913	32.3027
2.17365	32.1962
2.16819	32.0712
2.16277	31.8486
2.15737	31.7206
2.15199	31.787
2.14665	31.539
2.14133	31.3515
2.13603	31.4042
2.13077	31.373
2.12552	30.9843
2.12031	30.8612
2.11512	30.9237
2.10995	30.6581
2.10481	30.9921
2.0997	30.8085
2.09461	30.7773
2.08954	30.5663
2.0845	30.371
2.07948	30.2148
