Name: Spessartine Mn3Al2 (SiO4)3
Type: Mineral
Class: Silicates
Subclass: Nesosilicates (Framework silicates); GarnetGroup
Particle Size: Coarse  (75 - 250  Micrometers)
Sample No.: spessart.2
Owner: JHU
Wavelength Range: IR
Origin: Rutherford #2 mine, Amelia, Amelia Co., Virginia, USA via the
Description: The sample consisted of a group of 3 mm and smaller
Measurement: Bidirectional reflectance
X Units: Wavelength (micrometers)
Y Units: Reflectance (percent)
wavelength	value
25.0442	4.0198
24.3388	5.0049
23.6719	6.2036
23.0407	8.8559
22.4422	13.2812
21.8741	9.9243
21.334	13.8188
20.8199	15.0122
20.33	14.6965
19.8627	13.7639
19.4163	9.675
18.9896	7.5559
18.5812	2.2991
18.19	3.227
17.815	7.7641
17.4551	10.0029
17.1094	8.8445
16.7772	4.7949
16.4576	0.8833
16.15	1.0339
15.8537	2.0154
15.568	0.7446
15.2925	1.1301
15.0265	1.5156
14.7697	1.7705
14.5214	2.0139
14.2814	2.2078
14.0492	2.2864
13.8244	2.4297
13.6067	2.6221
13.3957	2.7175
13.1912	2.8601
12.9929	3.0942
12.8004	3.2812
12.6135	3.5151
12.432	3.8098
12.2557	4.1955
12.0843	4.7204
11.9176	5.5198
11.7555	7.0093
11.5977	9.2617
11.444	7.6274
11.2944	9.4397
11.1487	10.2676
11.0067	7.7385
10.8682	3.0371
10.7332	3.6809
10.6015	8.0032
10.473	12.417
10.3476	13.9284
10.2251	14.4279
10.1056	14.2898
9.98873	13.7544
9.87458	13.24
9.763	11.7121
9.65392	9.539
9.54724	6.9668
9.44291	4.4055
9.34082	1.8296
9.24091	0.3401
9.14312	0.1355
9.04739	0.2717
8.95363	0.4441
8.8618	0.5981
8.77183	0.7144
8.68368	0.8479
8.59727	0.978
8.51257	1.102
8.42951	1.2446
8.34807	1.3855
8.26819	1.4966
8.18981	1.6143
8.11292	1.7644
8.03745	1.9294
7.96337	2.1204
7.89064	2.2744
7.81924	2.4036
7.74911	2.4534
7.68023	2.4612
7.61256	2.4756
7.54608	2.4934
7.48074	2.5178
7.41653	2.4958
7.35341	2.4902
7.29136	2.5747
7.23034	2.7068
7.17033	2.8494
7.11132	3.0344
7.05327	3.1587
6.99616	3.1846
6.93996	3.1489
6.88467	3.1604
6.83024	3.2268
6.77667	3.3379
6.72393	3.519
6.67201	3.8149
6.62089	4.0813
6.57054	4.2353
6.52095	4.4153
6.4721	4.6677
6.42398	4.9846
6.37657	5.2703
6.32986	5.4424
6.28382	5.4941
6.23845	5.4963
6.19373	5.4814
6.14965	5.4526
6.10619	5.3706
6.06334	5.2644
6.02109	5.0847
5.97942	4.8279
5.93832	4.3376
5.89778	3.7373
5.8578	3.2468
5.81835	2.9443
5.77943	2.7578
5.74103	2.6431
5.70314	2.6208
5.66574	2.6536
5.62883	2.7004
5.5924	2.7375
5.55644	2.8581
5.52093	3.0227
5.48588	3.1421
5.45127	3.3279
5.41709	3.435
5.38334	3.4692
5.35	3.4866
5.31708	3.5444
5.28456	3.7143
5.25243	3.9184
5.2207	4.1282
5.18934	4.4236
5.15836	4.8064
5.12775	5.2681
5.09749	5.6553
5.0676	5.9162
5.03805	6.1055
5.00884	6.2568
4.97998	6.3882
4.95144	6.4939
4.92322	6.5661
4.89533	6.6467
4.86775	6.7473
4.84048	6.8618
4.81351	6.9619
4.78684	7.051
4.76047	7.1199
4.73439	7.1887
4.70859	7.2485
4.68306	7.3171
4.65782	7.375
4.63284	7.4348
4.60814	7.5
4.58369	7.5554
4.5595	7.6025
4.53557	7.6658
4.51188	7.7095
4.48845	7.7644
4.46525	7.8332
4.44229	7.8935
4.41957	7.9573
4.39708	8.0171
4.37481	8.0808
4.35277	8.1377
4.33096	8.197
4.30935	8.2617
4.28797	8.32
4.26679	8.3891
4.24583	8.4719
4.22506	8.5432
4.2045	8.6218
4.18414	8.6743
4.16398	8.7405
4.14401	8.8235
4.12423	8.8974
4.10464	8.9731
4.08523	9.0442
4.066	9.0964
4.04696	9.1709
4.02809	9.25
4.0094	9.3
3.99088	9.3403
3.97253	9.3628
3.95435	9.4082
3.93634	9.4194
3.91848	9.4297
3.90079	9.4443
3.88326	9.4577
3.86589	9.4841
3.84867	9.5141
3.8316	9.5569
3.81468	9.6191
3.79791	9.677
3.78129	9.7385
3.76482	9.8161
3.74848	9.8923
3.73229	9.9367
3.71624	9.9983
3.70032	10.0703
3.68454	10.1081
3.6689	10.1592
3.65338	10.2221
3.638	10.2954
3.62275	10.3513
3.60762	10.4123
3.59262	10.4609
3.57775	10.5202
3.56299	10.5744
3.54836	10.6179
3.53385	10.6579
3.51945	10.7041
3.50517	10.7241
3.49101	10.77
3.47696	10.8091
3.46303	10.8445
3.4492	10.8674
3.43549	10.8877
3.42188	10.8955
3.40838	10.915
3.39499	10.9536
3.38171	10.9887
3.36852	11.0009
3.35544	11.0166
3.34246	11.0383
3.32958	11.0473
3.3168	11.061
3.30411	11.0708
3.29153	11.0727
3.27903	11.0754
3.26664	11.0813
3.25433	11.0735
3.24212	11.0634
3.23	11.0595
3.21797	11.0403
3.20603	11.0171
3.19418	10.9983
3.18241	11.0017
3.17074	10.9604
3.15914	10.9345
3.14763	10.9074
3.13621	10.8615
3.12487	10.8398
3.11361	10.7983
3.10243	10.7629
3.09133	10.7363
3.0803	10.6989
3.06936	10.6609
3.0585	10.6203
3.04771	10.5752
3.037	10.542
3.02636	10.4905
3.0158	10.4201
3.00531	10.3608
2.99489	10.3008
2.98454	10.2356
2.97427	10.1509
2.96407	10.0678
2.95393	10.0002
2.94387	9.9004
2.93387	9.7947
2.92394	9.6816
2.91408	9.5659
2.90429	9.4729
2.89456	9.3618
2.88489	9.2439
2.87529	9.126
2.86576	9.0244
2.85628	8.79
2.84687	8.436
2.83752	8.2729
2.82823	7.8027
2.81901	6.7651
2.80984	5.9084
2.80073	4.6775
2.79168	3.1689
2.78269	2.6509
2.77376	3.5674
2.76488	3.5105
2.75606	3.479
2.7473	3.5168
2.73859	4.2361
2.72994	7.4031
2.72134	8.7602
2.7128	9.25
2.70431	9.3105
2.69587	9.2947
2.68748	9.3161
2.67915	9.2783
2.67087	9.2278
2.66264	9.238
2.65446	9.2434
2.64633	9.2021
2.63825	9.1985
2.63021	9.1396
2.62223	9.1306
2.6143	9.0942
2.60641	9.0329
2.59857	9.0149
2.59078	9.0132
2.58304	8.9551
2.57534	8.9333
2.56768	8.9077
2.56008	8.8718
2.55251	8.8489
2.54499	8.8244
2.53752	8.8022
2.53009	8.7727
2.5227	8.6999
2.51536	8.6914
2.50806	8.7014
2.5008	8.6545
2.49358	8.6042
2.4864	8.6367
2.47927	8.6289
2.47218	8.6218
2.46512	8.6199
2.45811	8.6301
2.45114	8.6191
2.4442	8.6172
2.43731	8.5979
2.43045	8.5832
2.42363	8.5774
2.41685	8.5825
2.41011	8.5896
2.40341	8.5793
2.39674	8.5849
2.39011	8.6045
2.38352	8.583
2.37696	8.5774
2.37044	8.5642
2.36395	8.5703
2.35751	8.539
2.35109	8.5405
2.34471	8.539
2.33836	8.4934
2.33205	8.3926
2.32578	8.3174
2.31953	8.4651
2.31332	8.6089
2.30714	8.7041
2.301	8.7773
2.29489	8.7978
2.28881	8.8462
2.28276	8.8357
2.27675	8.8354
2.27076	8.8227
2.26481	8.8286
2.25889	8.7817
2.253	8.7314
2.24714	8.7754
2.24131	8.7624
2.23551	8.7959
2.22974	8.8725
2.224	8.9018
2.21829	8.9653
2.21261	9.0019
2.20696	9.0259
2.20134	9.04
2.19574	9.0708
2.19018	9.0644
2.18464	9.1035
2.17913	9.1162
2.17365	9.1621
2.16819	9.1938
2.16277	9.2104
2.15737	9.2275
2.15199	9.2593
2.14665	9.2275
2.14133	9.2751
2.13603	9.2934
2.13077	9.3132
2.12552	9.3535
2.12031	9.3896
2.11512	9.3994
2.10995	9.4109
2.10481	9.4214
2.0997	9.4485
2.09461	9.4612
2.08954	9.5305
2.0845	9.4782
2.07948	9.4905
