Name: Olivine (Fo92) (Fe+2,Mg)2SiO4
Type: Mineral
Class: Silicates
Subclass: Nesosilicates (Isolated tetrahedra); (Olivine Group)
Particle Size: Coarse  (75 - 250  Micrometers)
Sample No.: olivine.11
Owner: JHU
Wavelength Range: IR
Origin: Chavira olivine-peridot mine, near Camargo, Chihuahua,
Description: Sample consisted of many 0.5 cm particles, green in
Measurement: Bidirectional reflectance
X Units: Wavelength (micrometers)
Y Units: Reflectance (percent)
wavelength	value
25.0442	13.083
24.3388	14.9423
23.6719	18.8352
23.0407	15.6677
22.4422	12.2893
21.8741	8.353
21.334	7.1948
20.8199	5.74
20.33	5.9878
19.8627	10.2177
19.4163	10.7639
18.9896	14.0822
18.5812	11.9362
18.19	11.1557
17.815	9.1491
17.4551	7.322
17.1094	5.2507
16.7772	4.366
16.4576	5.135
16.15	6.1496
15.8537	6.5652
15.568	5.7517
15.2925	3.6099
15.0265	1.9299
14.7697	1.5627
14.5214	1.7439
14.2814	1.9226
14.0492	2.1599
13.8244	2.3406
13.6067	2.5273
13.3957	2.7122
13.1912	2.9075
12.9929	3.0686
12.8004	3.2983
12.6135	3.5137
12.432	3.7808
12.2557	4.1406
12.0843	4.6929
11.9176	5.5093
11.7555	4.9187
11.5977	6.4238
11.444	10.1933
11.2944	12.8532
11.1487	14.1711
11.0067	15.3125
10.8682	16.7031
10.7332	18.1245
10.6015	19.423
10.473	19.2087
10.3476	12.5869
10.2251	11.8442
10.1056	14.3256
9.98873	12.2861
9.87458	12.1347
9.763	11.7888
9.65392	10.9265
9.54724	9.8706
9.44291	9.1101
9.34082	9.0657
9.24091	7.6682
9.14312	5.8132
9.04739	4.1326
8.95363	2.6062
8.8618	1.2781
8.77183	0.7991
8.68368	0.9124
8.59727	1.0117
8.51257	1.1216
8.42951	1.1916
8.34807	1.301
8.26819	1.3916
8.18981	1.4653
8.11292	1.5945
8.03745	1.7339
7.96337	1.8669
7.89064	1.9534
7.81924	1.9924
7.74911	2.042
7.68023	2.115
7.61256	2.1443
7.54608	2.1746
7.48074	2.2749
7.41653	2.4104
7.35341	2.5417
7.29136	2.7046
7.23034	2.7539
7.17033	2.8008
7.11132	2.9394
7.05327	2.9534
6.99616	3.1492
6.93996	3.4082
6.88467	3.6389
6.83024	3.655
6.77667	3.7017
6.72393	3.9726
6.67201	4.2593
6.62089	4.4436
6.57054	4.4883
6.52095	4.4761
6.4721	4.5151
6.42398	4.5403
6.37657	4.5632
6.32986	4.613
6.28382	4.4971
6.23845	4.5115
6.19373	4.6037
6.14965	4.5915
6.10619	4.354
6.06334	3.7881
6.02109	3.0076
5.97942	2.7446
5.93832	2.8213
5.89778	2.8389
5.8578	2.8115
5.81835	2.8428
5.77943	2.8838
5.74103	2.8782
5.70314	2.6623
5.66574	2.4297
5.62883	2.2803
5.5924	2.3005
5.55644	2.6186
5.52093	2.7873
5.48588	2.8354
5.45127	2.822
5.41709	2.897
5.38334	3.0737
5.35	3.2241
5.31708	3.3545
5.28456	3.3982
5.25243	3.3928
5.2207	3.3848
5.18934	3.5134
5.15836	3.7361
5.12775	3.9975
5.09749	4.219
5.0676	4.3948
5.03805	4.4631
5.00884	4.4155
4.97998	4.291
4.95144	4.1167
4.92322	4.2256
4.89533	4.6743
4.86775	5.468
4.84048	6.1824
4.81351	6.532
4.78684	6.7439
4.76047	6.9065
4.73439	7.0205
4.70859	7.1177
4.68306	7.2051
4.65782	7.2981
4.63284	7.3669
4.60814	7.4475
4.58369	7.5393
4.5595	7.6325
4.53557	7.7278
4.51188	7.8293
4.48845	7.9287
4.46525	8.0183
4.44229	8.1023
4.41957	8.1826
4.39708	8.2641
4.37481	8.352
4.35277	8.4377
4.33096	8.5151
4.30935	8.594
4.28797	8.6596
4.26679	8.7304
4.24583	8.8244
4.22506	8.9006
4.2045	8.9729
4.18414	9.0456
4.16398	9.1228
4.14401	9.1823
4.12423	9.2407
4.10464	9.3047
4.08523	9.3742
4.066	9.4043
4.04696	9.4211
4.02809	9.3747
4.0094	9.3696
3.99088	9.479
3.97253	9.5981
3.95435	9.7077
3.93634	9.7573
3.91848	9.8188
3.90079	9.8667
3.88326	9.8894
3.86589	9.9316
3.84867	9.9487
3.8316	9.9834
3.81468	10.0522
3.79791	10.0986
3.78129	10.1618
3.76482	10.2405
3.74848	10.3127
3.73229	10.3672
3.71624	10.4175
3.70032	10.5024
3.68454	10.572
3.6689	10.6242
3.65338	10.6823
3.638	10.7297
3.62275	10.7885
3.60762	10.8467
3.59262	10.9043
3.57775	10.9392
3.56299	10.9812
3.54836	11.0227
3.53385	11.07
3.51945	11.1035
3.50517	11.0971
3.49101	11.1533
3.47696	11.2065
3.46303	11.2761
3.4492	11.2822
3.43549	11.2783
3.42188	11.2509
3.40838	11.2685
3.39499	11.3603
3.38171	11.3896
3.36852	11.4092
3.35544	11.4748
3.34246	11.5039
3.32958	11.56
3.3168	11.6196
3.30411	11.6523
3.29153	11.7085
3.27903	11.7383
3.26664	11.7619
3.25433	11.7693
3.24212	11.8032
3.23	11.8327
3.21797	11.8318
3.20603	11.8486
3.19418	11.8781
3.18241	11.8889
3.17074	11.9048
3.15914	11.9111
3.14763	11.9143
3.13621	11.9116
3.12487	11.9209
3.11361	11.9133
3.10243	11.9275
3.09133	11.9482
3.0803	11.9709
3.06936	11.9768
3.0585	11.9834
3.04771	12.0066
3.037	11.9922
3.02636	11.9975
3.0158	11.9587
3.00531	11.8806
2.99489	11.9331
2.98454	11.9187
2.97427	11.8984
2.96407	11.938
2.95393	11.9392
2.94387	11.9631
2.93387	11.9633
2.92394	11.9467
2.91408	11.9804
2.90429	11.9961
2.89456	12.0022
2.88489	12.0112
2.87529	11.9389
2.86576	11.9494
2.85628	11.9858
2.84687	11.8503
2.83752	11.5681
2.82823	11.9021
2.81901	12.0605
2.80984	11.8925
2.80073	11.3564
2.79168	12.0859
2.78269	12.2932
2.77376	12.3574
2.76488	12.3891
2.75606	12.4465
2.7473	12.5112
2.73859	12.5612
2.72994	12.6352
2.72134	12.6552
2.7128	12.6872
2.70431	12.7121
2.69587	12.7341
2.68748	12.7854
2.67915	12.8342
2.67087	12.8515
2.66264	12.852
2.65446	12.8571
2.64633	12.8152
2.63825	12.852
2.63021	12.8554
2.62223	12.8537
2.6143	12.8735
2.60641	12.8794
2.59857	12.875
2.59078	12.8999
2.58304	12.9277
2.57534	12.9121
2.56768	12.9297
2.56008	12.9043
2.55251	12.893
2.54499	12.8925
2.53752	12.8925
2.53009	12.8798
2.5227	12.8217
2.51536	12.8598
2.50806	12.8364
2.5008	12.8247
2.49358	12.8398
2.4864	12.8374
2.47927	12.7778
2.47218	12.7778
2.46512	12.7549
2.45811	12.7661
2.45114	12.7231
2.4442	12.6938
2.43731	12.7207
2.43045	12.6836
2.42363	12.7011
2.41685	12.6584
2.41011	12.7028
2.40341	12.6985
2.39674	12.6716
2.39011	12.6513
2.38352	12.6074
2.37696	12.6467
2.37044	12.5947
2.36395	12.6372
2.35751	12.5808
2.35109	12.612
2.34471	12.5678
2.33836	12.5295
2.33205	12.5166
2.32578	12.5188
2.31953	12.4648
2.31332	12.4716
2.30714	12.4072
2.301	12.3943
2.29489	12.4143
2.28881	12.3855
2.28276	12.3664
2.27675	12.3349
2.27076	12.3369
2.26481	12.3735
2.25889	12.3637
2.253	12.3252
2.24714	12.2883
2.24131	12.3017
2.23551	12.2746
2.22974	12.2502
2.224	12.248
2.21829	12.2278
2.21261	12.226
2.20696	12.1567
2.20134	12.1772
2.19574	12.2004
2.19018	12.1799
2.18464	12.2121
2.17913	12.145
2.17365	12.2053
2.16819	12.164
2.16277	12.1679
2.15737	12.1494
2.15199	12.1587
2.14665	12.0783
2.14133	12.1294
2.13603	12.0822
2.13077	12.0913
2.12552	12.0683
2.12031	12.0988
2.11512	12.1142
2.10995	12.122
2.10481	12.0537
2.0997	12.0478
2.09461	12.1076
2.08954	12.1008
2.0845	12.1206
2.07948	12.0459
