Name: Clinozoisite Ca2Al3(SiO4)3(OH)
Type: Mineral
Class: Silicates
Subclass: Sorosilicates (Epidote Group)
Particle Size: Fine  (0 - 74  Micrometers)
Sample No.: clinozo.1
Owner: JHU
Wavelength Range: IR
Origin: Sample from Baja California, Mexico via Smithsonian (sample
Description: The sample was one large (2.5 cm x 2 cm x 2 cm) crystal
Measurement: Bidirectional reflectance
X Units: Wavelength (micrometers)
Y Units: Reflectance (percent)
wavelength	value
25.044	2.8428
24.339	3.3271
23.672	2.6243
23.041	2.7373
22.442	3.0342
21.874	2.7695
21.334	2.0644
20.82	2.1079
20.33	2.0102
19.863	2.1987
19.416	2.438
18.99	2.5881
18.581	2.2747
18.19	2.4294
17.815	2.5608
17.455	2.8044
17.109	2.6824
16.777	1.8279
16.458	1.852
16.15	1.6357
15.854	1.7063
15.568	1.948
15.292	2.1687
15.027	2.0684
14.77	2.0432
14.521	1.8174
14.281	1.5923
14.049	1.4368
13.824	1.417
13.607	1.2957
13.396	1.9082
13.191	2.5857
12.993	2.9106
12.8	3.0264
12.614	2.9534
12.432	2.5198
12.256	2.2532
12.084	2.0164
11.918	1.7371
11.755	1.6162
11.598	1.7073
11.444	1.7029
11.294	2.0522
11.149	2.2102
11.007	1.9138
10.868	1.6377
10.733	1.7617
10.602	2.2856
10.473	2.7937
10.348	2.9575
10.225	2.887
10.106	2.7768
9.989	2.6204
9.875	1.595
9.763	0.8125
9.654	1.0923
9.547	1.7156
9.443	2.178
9.341	2.0561
9.241	1.7434
9.143	1.6587
9.047	1.7974
8.954	2.0276
8.862	2.1799
8.772	2.3525
8.684	2.3955
8.597	2.0752
8.513	1.387
8.43	0.9404
8.348	1.022
8.268	1.3887
8.19	1.9424
8.113	2.5264
8.037	3.0659
7.963	3.5808
7.891	4.0286
7.819	4.4536
7.749	4.8909
7.68	5.3767
7.613	5.8772
7.546	6.3288
7.481	6.6496
7.417	6.9223
7.353	7.1846
7.291	7.3589
7.23	7.5102
7.17	7.6897
7.111	7.8262
7.053	7.9978
6.996	8.2353
6.94	8.3728
6.885	8.5232
6.83	8.6716
6.777	8.789
6.724	8.8125
6.672	8.8191
6.621	8.8296
6.571	8.8655
6.521	8.9543
6.472	9.0442
6.424	9.1794
6.377	9.3662
6.33	9.4555
6.284	9.4746
6.239	9.4236
6.194	9.2302
6.15	8.9099
6.106	8.4985
6.063	8.0815
6.021	7.8205
5.979	7.6355
5.938	7.435
5.898	7.3638
5.858	7.4944
5.818	7.6323
5.779	7.6902
5.741	7.7029
5.703	7.6528
5.666	7.6221
5.629	7.6938
5.592	7.8789
5.556	8.2466
5.521	8.75
5.486	9.2698
5.451	9.6914
5.417	9.9214
5.383	10.127
5.35	10.183
5.317	10.213
5.285	10.258
5.252	10.17
5.221	10.038
5.189	9.9572
5.158	10.236
5.128	10.711
5.098	10.83
5.068	10.829
5.038	10.798
5.009	10.705
4.98	10.245
4.951	9.1159
4.923	8.4519
4.895	8.4966
4.868	8.2627
4.84	8.4797
4.814	9.4699
4.787	10.099
4.761	10.944
4.734	11.97
4.709	12.541
4.683	12.678
4.658	12.722
4.633	12.52
4.608	12.387
4.584	12.759
4.559	13.281
4.536	13.85
4.512	14.411
4.488	14.921
4.465	15.367
4.442	15.767
4.42	16.099
4.397	16.324
4.375	16.473
4.353	16.589
4.331	16.694
4.309	16.769
4.288	16.841
4.267	16.929
4.246	16.987
4.225	17.043
4.205	17.093
4.184	17.172
4.164	17.236
4.144	17.283
4.124	17.3
4.105	17.297
4.085	17.298
4.066	17.243
4.047	17.166
4.028	17.022
4.009	16.917
3.991	16.959
3.973	17.09
3.954	17.157
3.936	17.198
3.918	17.23
3.901	17.26
3.883	17.268
3.866	17.261
3.849	17.247
3.832	17.222
3.815	17.188
3.798	17.132
3.781	17.049
3.765	16.967
3.748	16.888
3.732	16.823
3.716	16.748
3.7	16.696
3.684	16.633
3.669	16.558
3.653	16.445
3.638	16.335
3.623	16.253
3.608	16.19
3.593	16.133
3.578	16.048
3.563	15.93
3.548	15.756
3.534	15.536
3.519	15.25
3.505	14.731
3.491	14.701
3.477	14.594
3.463	14.46
3.449	14.249
3.436	14.026
3.422	13.62
3.408	13.606
3.395	13.773
3.382	13.651
3.369	13.561
3.355	13.5
3.342	13.328
3.33	13.031
3.317	12.638
3.304	12.213
3.292	11.838
3.279	11.523
3.267	11.285
3.254	11.015
3.242	10.683
3.23	10.228
3.218	9.7011
3.206	9.1916
3.194	8.7942
3.182	8.4609
3.171	8.1306
3.159	7.6914
3.148	7.1699
3.136	6.614
3.125	6.1157
3.114	5.6721
3.102	5.2302
3.091	4.8647
3.08	4.5918
3.069	4.4058
3.059	4.3391
3.048	4.2248
3.037	3.9639
3.026	3.4111
3.016	2.7014
3.005	2.1706
2.995	1.938
2.985	1.8137
2.974	1.8306
2.964	1.946
2.954	2.3176
2.944	2.8486
2.934	3.4224
2.924	3.8113
2.914	3.9617
2.904	4.0454
2.895	4.2412
2.885	4.8161
2.875	5.5989
2.866	6.3645
2.856	7.126
2.847	7.8764
2.837	8.4243
2.828	7.841
2.819	8.2358
2.81	8.9575
2.801	9.7553
2.792	10.883
2.783	11.533
2.774	12.296
2.765	12.852
2.756	13.258
2.747	13.776
2.739	14.119
2.73	14.373
2.721	14.93
2.713	15.534
2.704	15.724
2.696	16.333
2.688	16.971
2.679	17.378
2.671	17.705
2.663	17.934
2.655	18.038
2.646	18.14
2.638	18.204
2.63	18.269
2.622	18.316
2.614	18.476
2.606	18.553
2.599	18.619
2.591	18.677
2.583	18.715
2.575	18.738
2.568	18.735
2.56	18.765
2.553	18.8
2.545	18.829
2.538	18.872
2.53	18.923
2.523	19.023
2.515	19.064
2.508	19.123
2.501	19.196
2.494	19.191
2.486	19.231
2.479	19.292
2.472	19.357
2.465	19.396
2.458	19.406
2.451	19.488
2.444	19.463
2.437	19.494
2.43	19.412
2.424	19.361
2.417	19.268
2.41	19.174
2.403	19.005
2.397	18.793
2.39	18.488
2.384	18.076
2.377	17.384
2.37	16.297
2.364	14.878
2.357	13.674
2.351	13.12
2.345	13.203
2.338	13.685
2.332	14.361
2.326	15.071
2.32	15.705
2.313	16.15
2.307	16.621
2.301	17.064
2.295	17.445
2.289	17.755
2.283	18.01
2.277	18.042
2.271	17.956
2.265	17.622
2.259	17.334
2.253	17.285
2.247	17.778
2.241	18.419
2.236	18.863
2.23	19.023
2.224	19.187
2.218	19.315
2.213	19.34
2.207	19.386
2.201	19.402
2.196	19.479
2.19	19.498
2.185	19.539
2.179	19.541
2.174	19.595
2.168	19.662
2.163	19.651
2.157	19.729
2.152	19.665
2.147	19.577
2.141	19.656
2.136	19.641
2.131	19.606
2.126	19.667
2.12	19.688
2.115	19.651
2.11	19.668
2.105	19.658
2.1	19.682
2.095	19.771
2.09	19.806
2.084	19.746
2.079	19.7
