Name: Pyrope Mg3Al2(SiO4)3
Type: Mineral
Class: Silicates
Subclass: Nesosilicates (Isolated tetrahedra); Garnet Group
Particle Size: Solid
Sample No.: pyrope.1
Owner: JHU
Wavelength Range: IR
Origin: Finsch Mine, Brits Farm, 23 miles E. of Posemasburg, Cape
Description: The sample consisted of many rounded (tumbled?)
Measurement: Bidirectional reflectance
X Units: Wavelength (micrometers)
Y Units: Reflectance (percent)
wavelength	value
25.0442	3.9136
24.3388	4.3315
23.6719	5.167
23.0407	6.9917
22.4422	9.9018
21.8741	11.8247
21.334	9.8415
20.8199	12.7104
20.33	13.1779
19.8627	12.5627
19.4163	10.3315
18.9896	7.3598
18.5812	7.2253
18.19	2.4446
17.815	2.5273
17.4551	7.3349
17.1094	9.0737
16.7772	7.8276
16.4576	5.0036
16.15	1.4448
15.8537	0.2312
15.568	0.2766
15.2925	0.4922
15.0265	0.6982
14.7697	0.9031
14.5214	1.1465
14.2814	1.3545
14.0492	1.554
13.8244	1.7576
13.6067	1.9529
13.3957	2.1973
13.1912	2.3821
12.9929	2.6045
12.8004	2.9067
12.6135	3.2502
12.432	3.6435
12.2557	3.9236
12.0843	4.5649
11.9176	5.626
11.7555	6.8464
11.5977	8.3596
11.444	8.6189
11.2944	7.73
11.1487	9.6377
11.0067	9.5193
10.8682	7.8069
10.7332	4.0718
10.6015	2.8393
10.473	5.7878
10.3476	10.9221
10.2251	13.1338
10.1056	13.6921
9.98873	13.7417
9.87458	13.2092
9.763	12.135
9.65392	11.1062
9.54724	9.5681
9.44291	7.4665
9.34082	4.9241
9.24091	2.5955
9.14312	1.0391
9.04739	0.2891
8.95363	0.0422
8.8618	0.0757
8.77183	0.1133
8.68368	0.1738
8.59727	0.2378
8.51257	0.2905
8.42951	0.334
8.34807	0.3914
8.26819	0.4451
8.18981	0.4941
8.11292	0.5452
8.03745	0.585
7.96337	0.6313
7.89064	0.6709
7.81924	0.6995
7.74911	0.7288
7.68023	0.7686
7.61256	0.804
7.54608	0.8425
7.48074	0.8625
7.41653	0.895
7.35341	0.9228
7.29136	0.9526
7.23034	0.9675
7.17033	0.9941
7.11132	1.0232
7.05327	1.0391
6.99616	1.0674
6.93996	1.092
6.88467	1.1096
6.83024	1.1355
6.77667	1.1382
6.72393	1.1565
6.67201	1.1748
6.62089	1.1953
6.57054	1.207
6.52095	1.2305
6.4721	1.2522
6.42398	1.2554
6.37657	1.2925
6.32986	1.3113
6.28382	1.3254
6.23845	1.3433
6.19373	1.3652
6.14965	1.3689
6.10619	1.3787
6.06334	1.3931
6.02109	1.4089
5.97942	1.4204
5.93832	1.4106
5.89778	1.4329
5.8578	1.4553
5.81835	1.4714
5.77943	1.4646
5.74103	1.468
5.70314	1.4802
5.66574	1.4951
5.62883	1.5039
5.5924	1.5183
5.55644	1.519
5.52093	1.5391
5.48588	1.5386
5.45127	1.5474
5.41709	1.5564
5.38334	1.5759
5.35	1.574
5.31708	1.5818
5.28456	1.5891
5.25243	1.5957
5.2207	1.6006
5.18934	1.6045
5.15836	1.6221
5.12775	1.6279
5.09749	1.6377
5.0676	1.646
5.03805	1.666
5.00884	1.6934
4.97998	1.7034
4.95144	1.7104
4.92322	1.7322
4.89533	1.7571
4.86775	1.7676
4.84048	1.7773
4.81351	1.7947
4.78684	1.8074
4.76047	1.8191
4.73439	1.8359
4.70859	1.8359
4.68306	1.8428
4.65782	1.8518
4.63284	1.8657
4.60814	1.8874
4.58369	1.8879
4.5595	1.8935
4.53557	1.9048
4.51188	1.915
4.48845	1.916
4.46525	1.9277
4.44229	1.9358
4.41957	1.9529
4.39708	1.968
4.37481	1.9731
4.35277	1.9858
4.33096	1.9966
4.30935	1.9954
4.28797	2.0088
4.26679	2.0249
4.24583	2.0369
4.22506	2.0435
4.2045	2.0623
4.18414	2.0554
4.16398	2.0676
4.14401	2.084
4.12423	2.0791
4.10464	2.0832
4.08523	2.094
4.066	2.1013
4.04696	2.1108
4.02809	2.0996
4.0094	2.0945
3.99088	2.0874
3.97253	2.1023
3.95435	2.0964
3.93634	2.1116
3.91848	2.1133
3.90079	2.1238
3.88326	2.1228
3.86589	2.1343
3.84867	2.1406
3.8316	2.146
3.81468	2.1548
3.79791	2.155
3.78129	2.167
3.76482	2.1728
3.74848	2.1741
3.73229	2.1853
3.71624	2.2012
3.70032	2.2009
3.68454	2.2034
3.6689	2.2175
3.65338	2.2114
3.638	2.2244
3.62275	2.2273
3.60762	2.2275
3.59262	2.2292
3.57775	2.2358
3.56299	2.2317
3.54836	2.2241
3.53385	2.2278
3.51945	2.2361
3.50517	2.2322
3.49101	2.2202
3.47696	2.2183
3.46303	2.23
3.4492	2.2336
3.43549	2.2312
3.42188	2.2378
3.40838	2.2285
3.39499	2.2192
3.38171	2.22
3.36852	2.2078
3.35544	2.2261
3.34246	2.2195
3.32958	2.24
3.3168	2.2456
3.30411	2.2727
3.29153	2.2766
3.27903	2.2905
3.26664	2.2991
3.25433	2.3047
3.24212	2.2971
3.23	2.2913
3.21797	2.3064
3.20603	2.3122
3.19418	2.3105
3.18241	2.3101
3.17074	2.301
3.15914	2.3083
3.14763	2.3039
3.13621	2.3081
3.12487	2.2961
3.11361	2.3079
3.10243	2.3032
3.09133	2.2978
3.0803	2.3147
3.06936	2.3054
3.0585	2.312
3.04771	2.3159
3.037	2.3235
3.02636	2.3081
3.0158	2.321
3.00531	2.3369
2.99489	2.3225
2.98454	2.3391
2.97427	2.3262
2.96407	2.3284
2.95393	2.3289
2.94387	2.3462
2.93387	2.3601
2.92394	2.356
2.91408	2.3384
2.90429	2.3481
2.89456	2.3462
2.88489	2.3486
2.87529	2.3442
2.86576	2.3484
2.85628	2.3406
2.84687	2.3574
2.83752	2.3774
2.82823	2.3691
2.81901	2.3762
2.80984	2.3765
2.80073	2.3818
2.79168	2.3826
2.78269	2.4155
2.77376	2.4226
2.76488	2.4343
2.75606	2.4253
2.7473	2.4375
2.73859	2.4548
2.72994	2.4785
2.72134	2.4897
2.7128	2.5066
2.70431	2.5232
2.69587	2.5347
2.68748	2.5571
2.67915	2.564
2.67087	2.5632
2.66264	2.5671
2.65446	2.5598
2.64633	2.5593
2.63825	2.5764
2.63021	2.5644
2.62223	2.5642
2.6143	2.5449
2.60641	2.5454
2.59857	2.5684
2.59078	2.5806
2.58304	2.5679
2.57534	2.5869
2.56768	2.5749
2.56008	2.5588
2.55251	2.582
2.54499	2.5669
2.53752	2.5706
2.53009	2.5742
2.5227	2.5684
2.51536	2.5559
2.50806	2.5884
2.5008	2.5791
2.49358	2.5879
2.4864	2.6123
2.47927	2.5769
2.47218	2.571
2.46512	2.5698
2.45811	2.602
2.45114	2.5793
2.4442	2.6003
2.43731	2.5859
2.43045	2.5942
2.42363	2.5703
2.41685	2.6106
2.41011	2.595
2.40341	2.6064
2.39674	2.6147
2.39011	2.6274
2.38352	2.6089
2.37696	2.5976
2.37044	2.6299
2.36395	2.6279
2.35751	2.623
2.35109	2.6123
2.34471	2.6328
2.33836	2.6577
2.33205	2.6411
2.32578	2.6611
2.31953	2.6601
2.31332	2.6333
2.30714	2.6687
2.301	2.6689
2.29489	2.6626
2.28881	2.666
2.28276	2.6575
2.27675	2.6728
2.27076	2.6841
2.26481	2.6907
2.25889	2.731
2.253	2.7559
2.24714	2.7446
2.24131	2.7978
2.23551	2.7832
2.22974	2.7776
2.224	2.8137
2.21829	2.833
2.21261	2.8193
2.20696	2.8401
2.20134	2.8159
2.19574	2.814
2.19018	2.8498
2.18464	2.8306
2.17913	2.842
2.17365	2.8332
2.16819	2.8965
2.16277	2.8928
2.15737	2.9018
2.15199	2.895
2.14665	2.8928
2.14133	2.8674
2.13603	2.9221
2.13077	2.9121
2.12552	2.9448
2.12031	2.887
2.11512	2.9072
2.10995	2.9446
2.10481	2.9556
2.0997	2.9414
2.09461	2.9385
2.08954	2.9846
2.0845	2.9541
2.07948	2.9514
