Name: Montmorillonite (Na,Ca)0.33(Al,Mg)2Si4O10(OH)2.nH2O
Type: Mineral
Class: Silicates
Subclass: Phyllosilicates (Sheet Silicates); (SmectiteGroup)
Particle Size: Fine  (0-2 micrometers)
Sample No.: montmor.3
Owner: JHU
Wavelength Range: IR
Origin: Apache Co., Arizona via Roger Clark, USGS #SAZ-1 (CMS),
Description: The sample is a light brown, earthy clay. Both bulk
Measurement: Bidirectional reflectance
X Units: Wavelength (micrometers)
Y Units: Reflectance (percent)
wavelength	value
25.0442	2.1016
24.3388	1.7642
23.6719	2.0093
23.0407	2.1589
22.4422	2.3079
21.8741	2.4831
21.334	2.8628
20.8199	2.7932
20.33	1.9958
19.8627	1.7786
19.4163	2.1831
18.9896	2.4985
18.5812	2.4319
18.19	2.3393
17.815	2.2048
17.4551	1.9243
17.1094	1.666
16.7772	1.4246
16.4576	1.1738
16.15	1.0369
15.8537	0.9375
15.568	0.6733
15.2925	0.5203
15.0265	0.5337
14.7697	0.5986
14.5214	0.6416
14.2814	0.6995
14.0492	0.7749
13.8244	0.8357
13.6067	0.8833
13.3957	0.9998
13.1912	1.0911
12.9929	1.113
12.8004	1.0696
12.6135	1.0725
12.432	1.0906
12.2557	1.113
12.0843	1.0669
11.9176	0.9995
11.7555	0.9851
11.5977	1.0469
11.444	1.0967
11.2944	1.1318
11.1487	1.1514
11.0067	1.1353
10.8682	1.1201
10.7332	1.1433
10.6015	1.1792
10.473	1.2224
10.3476	1.2905
10.2251	1.3977
10.1056	1.5518
9.98873	1.7165
9.87458	1.9185
9.763	2.1609
9.65392	2.4924
9.54724	2.9355
9.44291	3.3379
9.34082	3.4309
9.24091	3.0085
9.14312	2.5596
9.04739	2.3599
8.95363	2.3481
8.8618	2.449
8.77183	2.512
8.68368	2.448
8.59727	2.2749
8.51257	2.0142
8.42951	1.6445
8.34807	1.1118
8.26819	0.5747
8.18981	0.2908
8.11292	0.2427
8.03745	0.3472
7.96337	0.5193
7.89064	0.7202
7.81924	0.9329
7.74911	1.137
7.68023	1.3359
7.61256	1.51
7.54608	1.6748
7.48074	1.8279
7.41653	1.9604
7.35341	2.0918
7.29136	2.22
7.23034	2.3442
7.17033	2.4607
7.11132	2.5366
7.05327	2.5439
6.99616	2.5671
6.93996	2.7007
6.88467	2.8372
6.83024	2.9455
6.77667	3.0286
6.72393	3.1265
6.67201	3.2092
6.62089	3.2385
6.57054	3.2458
6.52095	3.2268
6.4721	3.1318
6.42398	2.9809
6.37657	2.7632
6.32986	2.3757
6.28382	1.7473
6.23845	1.0801
6.19373	0.7668
6.14965	0.6367
6.10619	0.6162
6.06334	0.6609
6.02109	0.7942
5.97942	1.0598
5.93832	1.52
5.89778	2.0156
5.8578	2.4778
5.81835	2.8374
5.77943	3.1716
5.74103	3.4695
5.70314	3.7136
5.66574	3.8804
5.62883	3.9443
5.5924	3.9123
5.55644	3.8042
5.52093	3.6482
5.48588	3.5244
5.45127	3.4902
5.41709	3.5696
5.38334	3.7253
5.35	3.9114
5.31708	4.0859
5.28456	4.2173
5.25243	4.2981
5.2207	4.3584
5.18934	4.4216
5.15836	4.5029
5.12775	4.6387
5.09749	4.8181
5.0676	5.0354
5.03805	5.271
5.00884	5.5024
4.97998	5.7068
4.95144	5.875
4.92322	6.0119
4.89533	6.1125
4.86775	6.1841
4.84048	6.2327
4.81351	6.2969
4.78684	6.3496
4.76047	6.3928
4.73439	6.4385
4.70859	6.4722
4.68306	6.5054
4.65782	6.5442
4.63284	6.5784
4.60814	6.6076
4.58369	6.6384
4.5595	6.668
4.53557	6.7131
4.51188	6.7576
4.48845	6.832
4.46525	6.9035
4.44229	6.9724
4.41957	7.0769
4.39708	7.1633
4.37481	7.2676
4.35277	7.3657
4.33096	7.4685
4.30935	7.5852
4.28797	7.7012
4.26679	7.8213
4.24583	7.9453
4.22506	8.0632
4.2045	8.1926
4.18414	8.3232
4.16398	8.4509
4.14401	8.5639
4.12423	8.6777
4.10464	8.7871
4.08523	8.9101
4.066	9.0154
4.04696	9.104
4.02809	9.1897
4.0094	9.2783
3.99088	9.3403
3.97253	9.3918
3.95435	9.4314
3.93634	9.445
3.91848	9.4509
3.90079	9.4582
3.88326	9.4416
3.86589	9.4096
3.84867	9.3672
3.8316	9.3088
3.81468	9.2527
3.79791	9.1799
3.78129	9.0891
3.76482	9.0017
3.74848	8.8852
3.73229	8.7837
3.71624	8.6487
3.70032	8.5351
3.68454	8.4204
3.6689	8.3017
3.65338	8.1767
3.638	8.0371
3.62275	7.8979
3.60762	7.7414
3.59262	7.5703
3.57775	7.3877
3.56299	7.196
3.54836	6.9917
3.53385	6.7793
3.51945	6.5368
3.50517	6.2676
3.49101	6.0896
3.47696	5.9189
3.46303	5.7151
3.4492	5.487
3.43549	5.2466
3.42188	4.967
3.40838	4.7666
3.39499	4.6059
3.38171	4.384
3.36852	4.2178
3.35544	4.0146
3.34246	3.8132
3.32958	3.6059
3.3168	3.4031
3.30411	3.197
3.29153	3.011
3.27903	2.8169
3.26664	2.6269
3.25433	2.4543
3.24212	2.2756
3.23	2.1377
3.21797	1.977
3.20603	1.8459
3.19418	1.7012
3.18241	1.5867
3.17074	1.4729
3.15914	1.3633
3.14763	1.2773
3.13621	1.1958
3.12487	1.126
3.11361	1.0515
3.10243	1.022
3.09133	0.9739
3.0803	0.9558
3.06936	0.9561
3.0585	0.9416
3.04771	0.9539
3.037	0.9253
3.02636	0.9243
3.0158	0.8843
3.00531	0.855
2.99489	0.8345
2.98454	0.822
2.97427	0.7898
2.96407	0.7707
2.95393	0.7485
2.94387	0.7476
2.93387	0.7368
2.92394	0.7236
2.91408	0.7207
2.90429	0.699
2.89456	0.6924
2.88489	0.679
2.87529	0.6787
2.86576	0.668
2.85628	0.6587
2.84687	0.6316
2.83752	0.6216
2.82823	0.6318
2.81901	0.6177
2.80984	0.5937
2.80073	0.5803
2.79168	0.5608
2.78269	0.5217
2.77376	0.4705
2.76488	0.4441
2.75606	0.4233
2.7473	0.4512
2.73859	0.4531
2.72994	0.4937
2.72134	0.5945
2.7128	0.8572
2.70431	1.356
2.69587	2.1985
2.68748	3.2021
2.67915	4.0347
2.67087	4.7092
2.66264	5.229
2.65446	5.6081
2.64633	5.9233
2.63825	6.1667
2.63021	6.3769
2.62223	6.5693
2.6143	6.7136
2.60641	6.8425
2.59857	6.9546
2.59078	7.0476
2.58304	7.1382
2.57534	7.2278
2.56768	7.2959
2.56008	7.3672
2.55251	7.478
2.54499	7.5596
2.53752	7.6662
2.53009	7.7622
2.5227	7.8721
2.51536	7.9702
2.50806	8.0993
2.5008	8.1968
2.49358	8.2898
2.4864	8.3689
2.47927	8.4397
2.47218	8.4636
2.46512	8.4582
2.45811	8.4834
2.45114	8.5285
2.4442	8.5564
2.43731	8.6836
2.43045	8.7763
2.42363	8.8969
2.41685	9.0307
2.41011	9.1946
2.40341	9.331
2.39674	9.4756
2.39011	9.6435
2.38352	9.8161
2.37696	9.9358
2.37044	10.1096
2.36395	10.2607
2.35751	10.3318
2.35109	10.5078
2.34471	10.664
2.33836	10.8117
2.33205	10.9604
2.32578	11.0827
2.31953	11.1801
2.31332	11.3257
2.30714	11.4406
2.301	11.6008
2.29489	11.7197
2.28881	11.8366
2.28276	11.9365
2.27675	12.0263
2.27076	12.0578
2.26481	12.0446
2.25889	11.9277
2.253	11.77
2.24714	11.5263
2.24131	11.3554
2.23551	11.1155
2.22974	10.801
2.224	10.437
2.21829	10.1072
2.21261	10.0578
2.20696	10.4365
2.20134	11.0185
2.19574	11.622
2.19018	12.0908
2.18464	12.3877
2.17913	12.6633
2.17365	12.8706
2.16819	12.966
2.16277	13.1494
2.15737	13.1965
2.15199	13.1579
2.14665	13.1987
2.14133	13.217
2.13603	13.2453
2.13077	13.238
2.12552	13.2553
2.12031	13.2773
2.11512	13.2812
2.10995	13.3359
2.10481	13.3545
2.0997	13.3486
2.09461	13.4087
2.08954	13.4853
2.0845	13.5027
2.07948	13.5249
