Name: Millen1
Type: Stony Meteorites
Class: Ordinary Chondrite
Subclass: H4
Particle Size: 0-75 micrometers
Sample No.: Millen 5822
Owner: JHU
Origin: Meteorite found in 1975.  Smithsonian sample No USNM 5822.
Description: None.
Measurement: Bidirectional reflectance
X Units: Wavelength (micrometers)
Y Units: Reflectance (percent)
wavelength	value
25.044	0.9355
24.339	0.9895
23.672	0.946
23.041	0.9529
22.442	0.8774
21.874	0.7969
21.334	0.751
20.82	0.7683
20.33	0.9102
19.863	0.9678
19.416	0.9832
18.99	0.9048
18.581	0.8416
18.19	0.8252
17.815	0.7278
17.455	0.6951
17.109	0.6785
16.777	0.6973
16.458	0.6648
16.15	0.6614
15.854	0.616
15.568	0.53
15.292	0.5046
15.027	0.572
14.77	0.6047
14.521	0.6802
14.281	0.7681
14.049	0.843
13.824	0.8462
13.607	0.9228
13.396	1.0432
13.191	1.197
12.993	1.2996
12.8	1.3525
12.614	1.3545
12.432	1.3398
12.256	1.2556
12.084	1.0872
11.918	0.9414
11.755	0.9348
11.598	0.9778
11.444	1.0977
11.294	1.1252
11.149	1.0444
11.007	1.0239
10.868	1.0623
10.733	1.0808
10.602	1.0625
10.473	0.9475
10.348	0.8555
10.225	0.8452
10.106	0.7874
9.9887	0.7371
9.8746	0.7124
9.763	0.6711
9.6539	0.7056
9.5472	0.7881
9.4429	0.8186
9.3408	0.8
9.2409	0.7676
9.1431	0.7632
9.0474	0.7732
8.9536	0.7454
8.8618	0.7058
8.7718	0.6594
8.6837	0.6763
8.5973	0.6895
8.5126	0.7637
8.4295	0.8877
8.3481	1.0657
8.2682	1.2847
8.1898	1.5142
8.1129	1.7434
8.0374	1.9629
7.9634	2.1523
7.8906	2.3022
7.8192	2.4385
7.7491	2.5566
7.6802	2.6479
7.6126	2.7148
7.5461	2.8015
7.4807	2.8926
7.4165	2.9626
7.3534	3.0508
7.2914	3.126
7.2303	3.1763
7.1703	3.219
7.1113	3.2451
7.0533	3.2446
6.9962	3.2788
6.94	3.3198
6.8847	3.3735
6.8302	3.4582
6.7767	3.5527
6.7239	3.6189
6.672	3.603
6.6209	3.5552
6.5705	3.5195
6.5209	3.4792
6.4721	3.4202
6.424	3.3716
6.3766	3.3455
6.3299	3.2993
6.2838	3.2612
6.2385	3.1814
6.1937	3.0354
6.1496	2.8982
6.1062	2.8137
6.0633	2.7934
6.0211	2.8506
5.9794	3.0293
5.9383	3.2678
5.8978	3.4675
5.8578	3.6372
5.8184	3.7558
5.7794	3.8454
5.741	3.876
5.7031	3.8501
5.6657	3.791
5.6288	3.7944
5.5924	3.9053
5.5564	4.0322
5.5209	4.0808
5.4859	4.0752
5.4513	4.0903
5.4171	4.1421
5.3833	4.2124
5.35	4.2627
5.3171	4.2786
5.2846	4.2551
5.2524	4.2344
5.2207	4.2207
5.1893	4.2038
5.1584	4.1992
5.1277	4.2363
5.0975	4.2817
5.0676	4.3269
5.038	4.3745
5.0088	4.404
4.98	4.4106
4.9514	4.4319
4.9232	4.4831
4.8953	4.543
4.8678	4.5942
4.8405	4.6372
4.8135	4.6789
4.7868	4.7317
4.7605	4.7756
4.7344	4.8115
4.7086	4.8418
4.6831	4.8655
4.6578	4.8943
4.6328	4.9331
4.6081	4.9673
4.5837	4.9914
4.5595	5.0066
4.5356	5.0203
4.5119	5.0305
4.4884	5.0305
4.4652	5.0347
4.4423	5.0403
4.4196	5.0405
4.3971	5.0403
4.3748	5.0361
4.3528	5.0383
4.331	5.0373
4.3094	5.0347
4.288	5.0395
4.2668	5.0403
4.2458	5.0442
4.2251	5.0495
4.2045	5.0569
4.1841	5.0583
4.164	5.0571
4.144	5.0557
4.1242	5.0535
4.1046	5.0486
4.0852	5.0412
4.066	5.0364
4.047	5.0254
4.0281	5.0181
4.0094	5.0054
3.9909	4.9892
3.9725	4.9753
3.9544	4.9573
3.9363	4.9346
3.9185	4.9075
3.9008	4.8896
3.8833	4.8594
3.8659	4.8345
3.8487	4.8042
3.8316	4.7722
3.8147	4.7446
3.7979	4.7016
3.7813	4.6692
3.7648	4.6326
3.7485	4.5869
3.7323	4.5444
3.7162	4.4944
3.7003	4.4495
3.6845	4.397
3.6689	4.3464
3.6534	4.2937
3.638	4.2468
3.6227	4.189
3.6076	4.1352
3.5926	4.0808
3.5777	4.0232
3.563	3.9665
3.5484	3.9053
3.5338	3.8472
3.5195	3.7759
3.5052	3.71
3.491	3.6477
3.477	3.5957
3.463	3.5371
3.4492	3.4744
3.4355	3.4067
3.4219	3.3401
3.4084	3.2793
3.395	3.23
3.3817	3.1814
3.3685	3.1306
3.3554	3.0749
3.3425	3.0251
3.3296	2.9731
3.3168	2.9197
3.3041	2.8643
3.2915	2.8037
3.279	2.7527
3.2666	2.6985
3.2543	2.6465
3.2421	2.6013
3.23	2.5439
3.218	2.4912
3.206	2.4443
3.1942	2.3921
3.1824	2.3535
3.1707	2.3101
3.1591	2.2717
3.1476	2.2285
3.1362	2.1977
3.1249	2.1594
3.1136	2.1213
3.1024	2.0923
3.0913	2.0627
3.0803	2.0327
3.0694	2.0112
3.0585	1.9888
3.0477	1.9729
3.037	1.9468
3.0264	1.9307
3.0158	1.9011
3.0053	1.8762
2.9949	1.8574
2.9845	1.8359
2.9743	1.8137
2.9641	1.8035
2.9539	1.7944
2.9439	1.7905
2.9339	1.7769
2.9239	1.7703
2.9141	1.7698
2.9043	1.7673
2.8946	1.7737
2.8849	1.7747
2.8753	1.7771
2.8658	1.7827
2.8563	1.7837
2.8469	1.7937
2.8375	1.7942
2.8282	1.7932
2.819	1.7952
2.8098	1.7974
2.8007	1.8281
2.7917	1.8713
2.7827	1.957
2.7738	2.0762
2.7649	2.2524
2.7561	2.4792
2.7473	2.7654
2.7386	3.0998
2.7299	3.4512
2.7213	3.7624
2.7128	4.0632
2.7043	4.2947
2.6959	4.4529
2.6875	4.6001
2.6791	4.687
2.6709	4.7522
2.6626	4.81
2.6545	4.8376
2.6463	4.8623
2.6382	4.8635
2.6302	4.8603
2.6222	4.8667
2.6143	4.8547
2.6064	4.843
2.5986	4.8408
2.5908	4.8349
2.583	4.8354
2.5753	4.8247
2.5677	4.8223
2.5601	4.8257
2.5525	4.7944
2.545	4.7986
2.5375	4.7829
2.5301	4.7876
2.5227	4.7661
2.5154	4.7549
2.5081	4.7441
2.5008	4.7278
2.4936	4.7063
2.4864	4.6941
2.4793	4.6804
2.4722	4.6711
2.4651	4.6719
2.4581	4.6443
2.4511	4.6431
2.4442	4.6155
2.4373	4.6172
2.4305	4.6142
2.4236	4.6013
2.4169	4.5867
2.4101	4.5754
2.4034	4.5713
2.3967	4.5723
2.3901	4.5615
2.3835	4.5517
2.377	4.5569
2.3704	4.541
2.364	4.5268
2.3575	4.5127
2.3511	4.512
2.3447	4.5029
2.3384	4.4927
2.3321	4.4814
2.3258	4.459
2.3195	4.4766
2.3133	4.447
2.3071	4.4385
2.301	4.4336
2.2949	4.4236
2.2888	4.4172
2.2828	4.4167
2.2767	4.3933
2.2708	4.3977
2.2648	4.3911
2.2589	4.4043
2.253	4.3784
2.2471	4.3972
2.2413	4.3823
2.2355	4.3928
2.2297	4.3818
2.224	4.3769
2.2183	4.3791
2.2126	4.364
2.207	4.3867
2.2013	4.3647
2.1957	4.3743
2.1902	4.3852
2.1846	4.3664
2.1791	4.3747
2.1736	4.3625
2.1682	4.3628
2.1628	4.3799
2.1574	4.3811
2.152	4.3555
2.1466	4.3713
2.1413	4.3667
2.136	4.3704
2.1308	4.3796
2.1255	4.3447
2.1203	4.3552
2.1151	4.3486
2.11	4.3708
2.1048	4.3469
2.0997	4.3611
2.0946	4.3745
2.0895	4.3599
2.0845	4.3611
2.0795	4.3577
