Name: Fossiliferous Limestone
Type: Rocks
Class: Sedimentary
Subclass: Limestone
Particle Size: 500 - 1500 Micrometers
Sample No.: limestone.1
Owner: JHU
Wavelength Range: All
Origin: Sample No. 355,  from the Hunt and Salisbury Collection at
Description: Sample consists of a homogeneous microcrystalline
Measurement: Directional (10 Degree) Hemispherical Reflectance
X Units: Wavelength (micrometers)
Y Units: Reflectance (percent)
wavelength	value
14.011	1.7906
13.715	2.3985
13.43	2.868
13.158	2.9878
12.896	2.8003
12.644	2.8783
12.402	3.035
12.169	3.2371
11.945	3.3183
11.729	3.4326
11.52	4.454
11.319	6.7428
11.125	7.434
10.937	5.4728
10.756	4.8059
10.58	4.5151
10.41	4.1042
10.245	3.5377
10.086	3.2922
9.931	3.2149
9.781	3.2275
9.636	3.3505
9.495	3.6393
9.358	3.8559
9.225	4.0834
9.095	4.3502
8.969	4.4351
8.847	4.6409
8.727	5.0668
8.612	4.9156
8.499	5.4209
8.389	6.0053
8.281	6.9274
8.177	7.4747
8.075	7.2954
7.976	7.6513
7.879	7.4873
7.784	7.5492
7.692	7.4687
7.601	6.9222
7.513	6.9993
7.427	6.9105
7.343	6.4698
7.261	5.6073
7.18	5.6068
7.102	7.1792
7.025	7.5223
6.949	7.4131
6.875	7.761
6.803	8.2879
6.733	8.9707
6.663	10.1715
6.596	12.248
6.529	14.3332
6.464	15.4077
6.4	11.6516
6.338	6.749
6.276	4.578
6.216	3.6011
6.157	2.8421
6.099	2.4469
6.042	2.2364
5.986	2.2971
5.931	2.2407
5.878	2.2274
5.825	2.0643
5.773	1.9042
5.722	1.9521
5.672	2.0949
5.623	2.1043
5.574	1.3203
5.527	2.094
5.48	3.2396
5.434	4.2875
5.389	5.2849
5.345	6.0561
5.301	7.2217
5.258	8.5343
5.215	10.0653
5.174	11.0421
5.133	11.6234
5.093	9.1614
5.053	12.6338
5.014	12.672
4.975	12.8943
4.937	13.2232
4.9	13.7618
4.863	14.3148
4.827	14.6225
4.791	14.6435
4.756	13.6343
4.721	10.3878
4.687	6.3496
4.654	6.4616
4.62	9.6626
4.588	11.2678
4.556	11.6689
4.524	11.8832
4.492	12.5196
4.461	14.5014
4.431	16.3599
4.401	17.5157
4.371	17.8928
4.342	16.6619
4.313	16.3365
4.284	15.1289
4.256	15.0409
4.229	15.8787
4.201	15.7838
4.174	14.8821
4.147	13.5552
4.121	11.6002
4.095	9.7622
4.069	7.8237
4.044	5.6946
4.019	4.0495
3.994	2.9946
3.97	2.6598
3.945	3.1785
3.921	3.7527
3.898	3.9906
3.875	4.0478
3.852	4.1927
3.829	4.7584
3.806	6.3607
3.784	11.1015
3.762	13.5738
3.74	14.6828
3.719	15.7333
3.698	16.0565
3.677	15.9755
3.656	15.4619
3.636	14.8536
3.615	13.9599
3.595	12.4389
3.575	9.7983
3.556	9.1165
3.536	7.1447
3.517	4.866
3.498	4.1901
3.479	3.7894
3.461	4.4842
3.442	4.7662
3.424	4.8084
3.406	4.8193
3.388	4.6772
3.371	4.6507
3.353	4.3078
3.336	5.791
3.319	7.6818
3.302	8.4218
3.285	8.7958
3.269	9.0192
3.252	9.0624
3.236	8.8992
3.22	8.7297
3.204	8.5767
3.188	8.4269
3.173	8.1678
3.157	7.6775
3.142	7.5689
3.127	7.4735
3.112	7.2368
3.097	7.1457
3.082	7.2229
3.067	7.26
3.053	7.2413
3.039	7.2794
3.025	7.3332
3.011	7.2445
2.997	7.2237
2.983	7.2368
2.969	7.2299
2.956	7.2091
2.942	7.1985
2.929	7.221
2.916	7.2856
2.903	7.4086
2.89	7.5622
2.877	7.7429
2.864	7.8627
2.852	8.0321
2.839	8.2012
2.827	8.146
2.814	8.2113
2.802	8.2479
2.79	7.9522
2.778	7.8833
2.766	7.8618
2.755	8.3479
2.743	9.7718
2.731	12.0382
2.72	16.3143
2.708	21.7485
2.697	27.4857
2.686	33.1551
2.675	36.4546
2.664	38.8618
2.653	40.4015
2.642	41.5123
2.632	41.9109
2.621	42.2805
2.61	42.3725
2.6	42.0787
2.59	41.0261
2.579	39.6258
2.569	37.6638
2.559	33.2611
2.549	26.4054
2.539	22.0636
2.529	22.9445
2.519	26.0116
2.509	27.6799
2.5	28.3608
2.49	29.2334
2.481	30.9451
2.471	33.8217
2.462	37.0067
2.452	39.4614
2.443	41.2283
2.434	42.9962
2.425	44.6136
2.416	45.8823
2.407	46.5657
2.398	46.7401
2.389	47.2275
2.38	46.6482
2.372	44.9971
2.363	41.5554
2.354	36.3341
2.346	32.7489
2.337	32.0937
2.329	33.9186
2.321	36.273
2.312	37.7563
2.304	38.6654
2.296	39.7792
2.288	41.2104
2.28	43.1496
2.272	45.2129
2.264	46.729
2.256	47.8058
2.248	48.8844
2.24	49.6803
2.233	50.2467
2.225	50.4565
2.217	50.8548
2.21	51.3943
2.202	51.9039
2.195	52.46
2.187	52.8977
2.18	53.0735
2.173	53.0838
2.166	52.9261
2.158	52.7234
2.151	52.7854
2.144	53.279
2.137	53.837
2.13	54.0712
2.123	54.1901
2.116	54.3008
2.109	54.3813
2.102	54.5138
2.095	54.3984
2.089	54.5526
2.082	54.6009
2.06	54.0253
2.028	53.4672
1.996	50.6557
1.964	49.2088
1.932	48.3099
1.9	49.0722
1.868	53.8492
1.836	56.2869
1.804	56.8149
1.772	56.9226
1.74	56.48
1.708	56.4237
1.676	56.4552
1.644	56.2152
1.612	56.2066
1.58	56.2232
1.548	55.0358
1.516	54.3095
1.484	53.4809
1.452	52.1628
1.42	51.3081
1.388	51.9898
1.356	52.1939
1.324	51.9145
1.292	51.0348
1.26	50.3064
1.228	49.0392
1.196	48.3885
1.164	47.2257
1.132	46.2545
1.1	45.2094
1.068	44.2611
1.036	43.5085
1.004	42.9707
0.972	42.3673
0.94	42.1614
0.908	41.5547
0.876	41.3993
0.844	41.0433
0.812	41.1377
0.795	41.5957
0.787	41.2664
0.779	41.359
0.771	41.0571
0.763	41.0104
0.755	40.7789
0.747	40.6074
0.739	40.4533
0.731	40.0409
0.723	39.6669
0.715	39.6362
0.707	39.4072
0.699	39.2248
0.691	38.6664
0.683	38.93
0.675	38.5851
0.667	38.3083
0.659	37.6704
0.651	37.8417
0.643	37.3309
0.635	36.9477
0.627	36.7471
0.619	36.3541
0.611	36.0717
0.603	35.8085
0.595	35.3346
0.587	35.2584
0.579	34.5843
0.571	33.9217
0.563	33.3101
0.555	32.2967
0.547	31.9543
0.539	30.9388
0.531	29.7923
0.523	28.9601
0.515	28.2095
0.507	27.2327
0.499	26.5496
0.491	25.9148
0.483	25.1376
0.475	24.6238
0.467	24.2883
0.459	23.3555
0.451	23.3065
0.443	22.7559
0.435	21.6162
0.427	20.7392
0.419	19.8415
0.411	19.0763
0.403	18.4784
