Name: Fluorite CaF2
Type: Mineral
Class: Halides
Particle Size: Fine  (less than 2  Micrometers)
Sample No.: flourite.1
Owner: JHU
Wavelength Range: IR
Origin: Donated by Norma Vergo; sample from Bingham, New Mexico.
Description: The sample was a large piece of a transparent single
Measurement: Transmission
X Units: Wavelength (micrometers)
Y Units: Transmittance (percent)
wavelength	value
25.044	54.2264
24.339	55.3788
23.672	57.8553
23.041	63.828
22.442	71.6443
21.874	79.2029
21.334	84.6892
20.82	88.3025
20.33	90.3689
19.863	91.6492
19.416	92.9226
18.99	93.8201
18.581	93.6677
18.19	93.6209
17.815	93.8396
17.455	94.5486
17.109	95.2478
16.777	96.2185
16.458	97.1072
16.15	97.7517
15.854	98.3132
15.568	98.7527
15.292	98.907
15.027	98.5652
14.77	98.4143
14.521	98.3162
14.281	98.3806
14.049	98.3362
13.824	98.2908
13.607	98.1897
13.396	98.199
13.191	98.0935
12.993	98.137
12.8	98.0378
12.614	97.8142
12.432	97.5662
12.256	97.4499
12.084	97.6233
11.918	97.8357
11.755	98.1467
11.598	98.3884
11.444	98.7996
11.294	99.1311
11.149	99.5271
11.007	100.016
10.868	100.494
10.733	101.062
10.602	101.681
10.473	102.219
10.348	102.52
10.225	102.557
10.106	102.702
9.989	102.805
9.875	102.781
9.763	102.649
9.654	102.532
9.547	102.156
9.443	101.692
9.341	101.261
9.241	100.933
9.143	100.861
9.047	100.948
8.954	101.137
8.862	101.338
8.772	101.253
8.684	101.306
8.597	101.32
8.513	101.36
8.43	101.363
8.348	101.307
8.268	101.299
8.19	101.187
8.113	101.115
8.037	101.06
7.963	100.989
7.891	100.928
7.819	100.855
7.749	100.752
7.68	100.688
7.613	100.598
7.546	100.545
7.481	100.454
7.417	100.403
7.353	100.325
7.291	100.306
7.23	100.344
7.17	100.273
7.111	100.269
7.053	100.058
6.996	100.014
6.94	100.029
6.885	99.9512
6.83	99.8564
6.777	99.7683
6.724	99.7539
6.672	99.657
6.621	99.5906
6.571	99.3281
6.521	99.4092
6.472	99.2578
6.424	98.999
6.377	99.043
6.33	98.9119
6.284	98.7578
6.238	98.6182
6.194	98.5322
6.15	99.0095
6.106	98.9678
6.063	99.3584
6.021	100.005
5.979	99.9473
5.938	99.6584
5.898	99.7219
5.858	99.8972
5.818	99.6885
5.779	99.8176
5.741	99.6453
5.703	99.5039
5.666	99.457
5.629	99.3933
5.592	99.3437
5.556	99.2634
5.521	99.2385
5.486	99.2158
5.451	99.1887
5.417	99.0915
5.383	99.125
5.35	99.032
5.317	99.0654
5.285	99.0461
5.252	99.0549
5.221	99.0115
5.189	99.0022
5.158	98.9805
5.128	98.9509
5.097	98.9101
5.068	98.8816
5.038	98.8503
5.009	98.7976
4.98	98.7663
4.951	98.7275
4.923	98.7002
4.895	98.6863
4.868	98.6638
4.84	98.6426
4.814	98.6565
4.787	98.6345
4.76	98.6394
4.734	98.6318
4.709	98.6084
4.683	98.5781
4.658	98.5691
4.633	98.6035
4.608	98.5986
4.584	98.5976
4.56	98.6038
4.536	98.5393
4.512	98.5305
4.488	98.5144
4.465	98.4875
4.442	98.469
4.42	98.4514
4.397	98.4421
4.375	98.406
4.353	98.3953
4.331	98.3704
4.309	98.3581
4.288	98.3533
4.267	98.28
4.246	98.3186
4.225	98.2771
4.205	98.2322
4.184	98.197
4.164	98.1936
4.144	98.1863
4.124	98.178
4.105	98.1389
4.085	98.1306
4.066	98.0984
4.047	98.0657
4.028	98.0559
4.009	98.03
3.991	98.0354
3.973	97.9958
3.954	97.9734
3.936	97.9407
3.918	97.9358
3.901	97.8967
3.883	97.8777
3.866	97.8435
3.849	97.8318
3.832	97.8147
3.815	97.7849
3.798	97.7659
3.781	97.7356
3.765	97.7331
3.748	97.7292
3.732	97.717
3.716	97.6916
3.7	97.6638
3.685	97.6414
3.669	97.6218
3.653	97.5974
3.638	97.5901
3.623	97.5681
3.608	97.5745
3.593	97.5427
3.578	97.5281
3.563	97.5486
3.548	97.5124
3.534	97.5095
3.519	97.5203
3.505	97.4768
3.491	97.4612
3.477	97.4246
3.463	97.4314
3.449	97.4436
3.435	97.4612
3.422	97.4519
3.408	97.3923
3.395	97.3811
3.382	97.3953
3.369	97.3894
3.355	97.3787
3.342	97.3904
3.33	97.404
3.317	97.3967
3.304	97.3772
3.292	97.4001
3.279	97.3498
3.267	97.3479
3.254	97.2893
3.242	97.3269
3.23	97.3201
3.218	97.3284
3.206	97.3069
3.194	97.2908
3.182	97.2366
3.171	97.2151
3.159	97.1956
3.148	97.1448
3.136	97.1013
3.125	97.0276
3.114	96.9534
3.102	96.9031
3.091	96.8249
3.08	96.7361
3.069	96.6892
3.058	96.5867
3.048	96.5476
3.037	96.405
3.026	96.2439
3.016	96.114
3.005	95.9216
2.995	95.6804
2.985	95.4373
2.974	95.073
2.964	94.657
2.954	94.3171
2.944	94.0759
2.934	93.9978
2.924	93.9109
2.914	93.8162
2.904	93.822
2.895	93.9578
2.885	94.1169
2.875	94.3064
2.866	94.5173
2.856	94.7742
2.847	94.9021
2.838	94.9959
2.828	95.0173
2.819	94.988
2.81	95.0876
2.801	95.1794
2.792	95.4304
2.783	95.6521
2.774	95.9265
2.765	96.0242
2.756	95.9587
2.747	96.2146
2.739	95.9382
2.73	96.0984
2.721	95.9158
2.713	95.8923
2.704	95.7078
2.696	95.4841
2.687	95.4265
2.679	95.2156
2.671	94.95
2.663	95.1072
2.654	94.9968
2.646	95.0359
2.638	94.9763
2.63	94.6541
2.622	94.7625
2.614	94.6658
2.606	94.5242
2.599	94.6414
2.591	94.532
2.583	94.3015
2.575	94.3357
2.568	94.2781
2.56	94.1931
2.553	94.2537
2.545	94.1726
2.538	94.1677
2.53	94.0994
2.523	94.0154
2.515	93.9412
2.508	93.8982
2.501	93.822
2.494	93.7302
2.486	93.6892
2.479	93.7498
2.472	93.6052
2.465	93.5544
2.458	93.4959
2.451	93.5584
2.444	93.4998
2.437	93.5115
2.43	93.3904
2.424	93.3318
2.417	93.3474
2.41	93.2185
2.403	93.2009
2.397	93.199
2.39	93.1814
2.384	93.0955
2.377	93.0584
2.37	93.1033
2.364	93.0408
2.358	93.033
2.351	93.033
2.345	93.0154
2.338	93.0076
2.332	92.9841
2.326	92.9529
2.32	92.8748
2.313	92.8787
2.307	92.8611
2.301	92.9763
2.295	92.9177
2.289	92.8982
2.283	92.9138
2.277	92.9529
2.271	92.8435
2.265	92.8826
2.259	92.8748
2.253	92.8923
2.247	92.8787
2.241	92.8845
2.236	92.908
2.23	92.9763
2.224	93.1052
2.218	92.9314
2.213	92.9763
2.207	93.1033
2.201	93.0877
2.196	93.0466
2.19	92.9861
2.185	92.9939
2.179	93.0466
2.174	93.1326
2.168	93.1189
2.163	93.2439
2.157	93.1794
2.152	93.1365
2.147	93.2615
2.141	93.1873
2.136	93.1951
2.131	93.3005
2.126	93.2732
2.12	93.1755
2.115	93.4373
2.11	93.3669
2.105	93.2849
2.1	93.3552
2.095	93.3005
2.09	93.4216
2.085	93.3357
2.079	93.3513
