Name: Red Quartzite
Type: Rocks
Class: Metamorphic
Subclass: Quartzite
Particle Size: 500 - 1500 Micrometer
Owner: JHU
Wavelength Range: All
Origin: Sample No. 377, The Hunt and Salisbury Collection at the U.S.
Description: A well-compacted sample with medium-grained subangular to
Measurement: Directional (10 Degree) Hemispherical Reflectance
X Units: Wavelength (micrometers)
Y Units: Reflectance (percent)
wavelength	value
14.011	0.4062
13.715	1.4333
13.43	2.1542
13.158	2.0762
12.896	4.0825
12.644	3.2939
12.402	2.7941
12.169	1.1126
11.945	1.8451
11.729	2.1069
11.52	2.6739
11.319	3.5968
11.125	2.7136
10.937	2.5302
10.756	2.5055
10.58	2.7024
10.41	3.0783
10.245	3.682
10.086	4.0506
9.931	4.2095
9.781	4.7701
9.636	5.8661
9.495	7.6498
9.358	12.6751
9.225	15.535
9.095	15.5283
8.969	13.552
8.847	15.5407
8.727	15.1782
8.612	11.9258
8.499	16.2607
8.389	17.2519
8.281	18.8231
8.177	19.0913
8.075	12.9593
7.976	8.3079
7.879	4.9656
7.784	3.5462
7.692	2.8477
7.601	2.1703
7.513	1.8808
7.427	1.7674
7.343	1.675
7.261	1.7648
7.18	2.0359
7.102	2.584
7.025	2.8761
6.949	2.9141
6.875	3.0168
6.803	3.0653
6.733	3.2049
6.663	3.419
6.596	3.6499
6.529	3.853
6.464	4.0015
6.4	2.7906
6.338	1.7751
6.276	1.2864
6.216	1.1389
6.157	1.1291
6.099	1.2243
6.042	1.2604
5.986	1.2881
5.931	1.2903
5.878	1.3817
5.825	1.5246
5.773	1.6971
5.722	1.8301
5.672	1.7389
5.623	1.5829
5.574	1.4006
5.527	1.5786
5.48	1.7774
5.434	1.9328
5.389	1.7817
5.345	1.7892
5.301	1.8203
5.258	1.9268
5.215	2.2093
5.174	2.2818
5.133	2.2825
5.093	2.281
5.053	2.2925
5.014	2.3562
4.975	2.5383
4.937	2.923
4.9	3.8951
4.863	6.798
4.827	9.2707
4.791	11.3554
4.756	12.9007
4.721	12.9185
4.687	9.6325
4.654	11.2838
4.62	15.5738
4.588	17.5084
4.556	17.0758
4.524	13.4219
4.492	9.7703
4.461	9.4335
4.431	10.957
4.401	12.9072
4.371	16.1128
4.342	18.719
4.313	19.2166
4.284	18.9611
4.256	20.2019
4.229	20.212
4.201	20.2909
4.174	20.9654
4.147	21.4887
4.121	21.7334
4.095	21.7571
4.069	20.5435
4.044	17.0454
4.019	12.7397
3.994	10.2978
3.97	9.9808
3.945	11.563
3.921	13.162
3.898	13.4991
3.875	13.5793
3.852	13.742
3.829	15.1462
3.806	18.5448
3.784	23.742
3.762	24.9198
3.74	25.0505
3.719	25.8384
3.698	26.5693
3.677	27.7445
3.656	28.1457
3.636	27.7486
3.615	26.9578
3.595	25.8263
3.575	23.5728
3.556	22.3514
3.536	19.2865
3.517	14.698
3.498	13.0604
3.479	12.1564
3.461	13.4405
3.442	13.964
3.424	13.9607
3.406	13.6322
3.388	13.1714
3.371	12.8462
3.353	12.0739
3.336	14.5556
3.319	16.881
3.302	17.0703
3.285	16.9518
3.269	16.4764
3.252	15.9197
3.236	15.2247
3.22	14.5516
3.204	13.8573
3.188	13.1867
3.173	12.5802
3.157	11.8801
3.142	11.3396
3.127	10.8896
3.112	10.4952
3.097	10.1957
3.082	9.961
3.067	9.8095
3.053	9.6069
3.039	9.3827
3.025	9.1846
3.011	9.0989
2.997	9.0343
2.983	8.8107
2.969	8.4278
2.956	8.0465
2.942	8.3886
2.929	8.602
2.916	8.6252
2.903	8.7893
2.89	8.9497
2.877	9.1195
2.864	9.3902
2.852	9.4629
2.839	9.756
2.827	9.9842
2.814	10.2615
2.802	10.3252
2.79	10.0827
2.778	9.4531
2.766	6.1298
2.755	6.8856
2.743	5.7242
2.731	5.6913
2.72	5.907
2.708	5.3691
2.697	9.3019
2.686	16.4224
2.675	22.7132
2.664	27.2624
2.653	30.4971
2.642	32.6634
2.632	34.4186
2.621	35.7101
2.61	36.3462
2.6	36.5245
2.59	36.3308
2.579	36.5363
2.569	36.8705
2.559	36.9672
2.549	35.3378
2.539	33.7288
2.529	34.2489
2.519	35.712
2.509	36.5162
2.5	37.0181
2.49	37.3798
2.481	38.7288
2.471	40.1651
2.462	41.3533
2.452	42.197
2.443	43.1134
2.434	44.6973
2.425	46.1671
2.416	47.0571
2.407	47.6516
2.398	47.1174
2.389	45.9791
2.38	45.6385
2.372	46.6827
2.363	46.5748
2.354	44.9074
2.346	44.7184
2.337	44.9921
2.329	45.0942
2.321	46.1255
2.312	46.8032
2.304	47.7892
2.296	48.7967
2.288	49.7414
2.28	50.9534
2.272	52.3574
2.264	53.0783
2.256	53.9003
2.248	54.3152
2.24	54.9959
2.233	55.713
2.225	54.9593
2.217	51.632
2.21	40.2936
2.202	46.8724
2.195	49.2315
2.187	49.9782
2.18	49.7894
2.173	49.2733
2.166	49.4741
2.158	50.5911
2.151	52.8816
2.144	56.3881
2.137	58.5343
2.13	59.7366
2.123	60.4718
2.116	60.4086
2.109	61.0453
2.102	61.8563
2.095	62.1944
2.089	62.2552
2.082	62.8979
2.06	63.2355
2.028	63.1732
1.996	62.5268
1.964	60.6933
1.932	59.425
1.9	59.9591
1.868	65.9601
1.836	67.0836
1.804	67.589
1.772	68.3674
1.74	68.1591
1.708	68.568
1.676	67.8827
1.644	68.3714
1.612	68.0788
1.58	68.3646
1.548	67.6215
1.516	67.2354
1.484	66.3638
1.452	65.3566
1.42	64.3414
1.388	58.5937
1.356	64.5315
1.324	66.1462
1.292	65.7079
1.26	65.5033
1.228	64.0863
1.196	63.8647
1.164	62.0493
1.132	59.9639
1.1	58.2295
1.068	55.1929
1.036	52.6611
1.004	50.3151
0.972	46.848
0.94	43.3632
0.908	40.341
0.876	38.6594
0.844	38.0432
0.812	38.6835
0.795	39.2592
0.787	39.1163
0.779	39.5486
0.771	40.4125
0.763	40.2826
0.755	40.4817
0.747	40.7516
0.739	40.3181
0.731	40.343
0.723	39.6477
0.715	39.1655
0.707	38.1519
0.699	36.9344
0.691	36.0284
0.683	35.486
0.675	34.4517
0.667	33.2684
0.659	32.5988
0.651	31.5342
0.643	30.4343
0.635	29.5319
0.627	28.8444
0.619	27.7131
0.611	26.2717
0.603	24.9451
0.595	23.1009
0.587	21.3447
0.579	18.8328
0.571	17.1783
0.563	15.1162
0.555	13.4555
0.547	12.1696
0.539	11.4082
0.531	10.6856
0.523	10.4089
0.515	9.7729
0.507	9.4199
0.499	9.3209
0.491	9.0541
0.483	8.6864
0.475	8.5461
0.467	8.124
0.459	7.9281
0.451	7.6604
0.443	7.419
0.435	6.9267
0.427	6.3588
0.419	6.0317
0.411	5.8532
0.403	5.3964
