Name: Orthoclase KAlSi3O8
Type: Mineral
Class: Silicates
Subclass: Tectosilicates (Framework Silicates); (Feldspar Group)
Particle Size: Solid (fracture surface)
Sample No.: orthocl.3
Owner: JHU
Wavelength Range: IR
Origin: Harris Farm Mica Mine, near Oliver, Goochland Co., Virginia
Description: The hand sample is a single 11.97 g fragment of a single
Measurement: Bidirectional reflectance
X Units: Wavelength (micrometers)
Y Units: Reflectance (percent)
wavelength	value
25.0442	16.9775
24.3388	16.7812
23.6719	20.413
23.0407	23.7502
22.4422	20.8496
21.8741	14.6513
21.334	11.7238
20.8199	8.2759
20.33	4.9243
19.8627	6.2331
19.4163	7.3296
18.9896	8.4043
18.5812	10.5161
18.19	10.4543
17.815	9.3845
17.4551	10.7082
17.1094	12.6987
16.7772	15.8064
16.4576	17.5441
16.15	12.8549
15.8537	8.6116
15.568	8.4262
15.2925	7.5908
15.0265	7.0461
14.7697	7.82
14.5214	8.4656
14.2814	9.1992
14.0492	9.6184
13.8244	9.4529
13.6067	8.5793
13.3957	8.4507
13.1912	8.4992
12.9929	8.4177
12.8004	8.0244
12.6135	8.0022
12.432	8.1313
12.2557	8.6557
12.0843	9.1115
11.9176	9.4717
11.7555	9.8503
11.5977	10.2373
11.444	10.5918
11.2944	11.0224
11.1487	11.4709
11.0067	12.0183
10.8682	12.6662
10.7332	13.4724
10.6015	14.4785
10.473	15.7829
10.3476	17.6347
10.2251	19.9414
10.1056	22.4841
9.98873	25.1408
9.87458	27.2343
9.763	29.0719
9.65392	32.3378
9.54724	35.9208
9.44291	36.5189
9.34082	32.8791
9.24091	30.755
9.14312	28.352
9.04739	26.7492
8.95363	25.1972
8.8618	26.3603
8.77183	29.2992
8.68368	30.4274
8.59727	29.2284
8.51257	27.1518
8.42951	25.7136
8.34807	25.5597
8.26819	23.6286
8.18981	19.4064
8.11292	14.8449
8.03745	10.2732
7.96337	6.008
7.89064	3.123
7.81924	1.8103
7.74911	1.7773
7.68023	2.1663
7.61256	2.5088
7.54608	2.8142
7.48074	3.0684
7.41653	3.2925
7.35341	3.4822
7.29136	3.6589
7.23034	3.7832
7.17033	3.9219
7.11132	4.0642
7.05327	4.1836
6.99616	4.2947
6.93996	4.4045
6.88467	4.4934
6.83024	4.5449
6.77667	4.5588
6.72393	4.6384
6.67201	4.7043
6.62089	4.7744
6.57054	4.8201
6.52095	4.8935
6.4721	4.9443
6.42398	4.9753
6.37657	5.04
6.32986	5.1086
6.28382	5.1528
6.23845	5.197
6.19373	5.2312
6.14965	5.2803
6.10619	5.3076
6.06334	5.3655
6.02109	5.3813
5.97942	5.3828
5.93832	5.3545
5.89778	5.3901
5.8578	5.4748
5.81835	5.4411
5.77943	5.5405
5.74103	5.6191
5.70314	5.5181
5.66574	5.4861
5.62883	5.5161
5.5924	5.5315
5.55644	5.5488
5.52093	5.572
5.48588	5.5845
5.45127	5.6152
5.41709	5.6189
5.38334	5.6377
5.35	5.6575
5.31708	5.6943
5.28456	5.6994
5.25243	5.7207
5.2207	5.7449
5.18934	5.7651
5.15836	5.7876
5.12775	5.7981
5.09749	5.813
5.0676	5.8247
5.03805	5.8391
5.00884	5.8515
4.97998	5.8533
4.95144	5.8545
4.92322	5.8635
4.89533	5.8779
4.86775	5.8828
4.84048	5.8835
4.81351	5.8843
4.78684	5.8923
4.76047	5.8938
4.73439	5.9031
4.70859	5.9145
4.68306	5.9238
4.65782	5.9184
4.63284	5.9512
4.60814	5.9558
4.58369	5.9724
4.5595	5.98
4.53557	5.9824
4.51188	5.9868
4.48845	6.009
4.46525	6.0149
4.44229	6.0222
4.41957	6.0393
4.39708	6.042
4.37481	6.0625
4.35277	6.0644
4.33096	6.0781
4.30935	6.0854
4.28797	6.1106
4.26679	6.1069
4.24583	6.125
4.22506	6.1172
4.2045	6.1382
4.18414	6.1457
4.16398	6.1684
4.14401	6.1731
4.12423	6.1799
4.10464	6.1687
4.08523	6.1877
4.066	6.1836
4.04696	6.1958
4.02809	6.1985
4.0094	6.2065
3.99088	6.2117
3.97253	6.2241
3.95435	6.2331
3.93634	6.2517
3.91848	6.241
3.90079	6.269
3.88326	6.27
3.86589	6.2668
3.84867	6.2859
3.8316	6.2886
3.81468	6.3047
3.79791	6.3059
3.78129	6.31
3.76482	6.321
3.74848	6.3271
3.73229	6.3293
3.71624	6.3359
3.70032	6.3406
3.68454	6.3381
3.6689	6.3364
3.65338	6.3428
3.638	6.3542
3.62275	6.3484
3.60762	6.3589
3.59262	6.3691
3.57775	6.3716
3.56299	6.3799
3.54836	6.3909
3.53385	6.4033
3.51945	6.4582
3.50517	6.5449
3.49101	6.4101
3.47696	6.4057
3.46303	6.4499
3.4492	6.4802
3.43549	6.5517
3.42188	6.6501
3.40838	6.4641
3.39499	6.3691
3.38171	6.3652
3.36852	6.3452
3.35544	6.3222
3.34246	6.3274
3.32958	6.3125
3.3168	6.3254
3.30411	6.324
3.29153	6.3196
3.27903	6.3157
3.26664	6.3083
3.25433	6.3008
3.24212	6.3108
3.23	6.321
3.21797	6.3183
3.20603	6.313
3.19418	6.3139
3.18241	6.3415
3.17074	6.3213
3.15914	6.3266
3.14763	6.3357
3.13621	6.3188
3.12487	6.3286
3.11361	6.3389
3.10243	6.3301
3.09133	6.3306
3.0803	6.3306
3.06936	6.3398
3.0585	6.3166
3.04771	6.3208
3.037	6.3186
3.02636	6.3349
3.0158	6.3345
3.00531	6.3301
2.99489	6.3423
2.98454	6.3227
2.97427	6.3215
2.96407	6.3276
2.95393	6.3225
2.94387	6.3354
2.93387	6.3125
2.92394	6.3135
2.91408	6.2964
2.90429	6.2827
2.89456	6.3086
2.88489	6.332
2.87529	6.3359
2.86576	6.3225
2.85628	6.3296
2.84687	6.3208
2.83752	6.3193
2.82823	6.3188
2.81901	6.3418
2.80984	6.3428
2.80073	6.3276
2.79168	6.3203
2.78269	6.3208
2.77376	6.3389
2.76488	6.3335
2.75606	6.3218
2.7473	6.3528
2.73859	6.3345
2.72994	6.3428
2.72134	6.365
2.7128	6.3889
2.70431	6.3733
2.69587	6.3821
2.68748	6.3955
2.67915	6.3957
2.67087	6.3782
2.66264	6.4241
2.65446	6.4001
2.64633	6.3916
2.63825	6.4231
2.63021	6.3696
2.62223	6.4043
2.6143	6.4014
2.60641	6.373
2.59857	6.4101
2.59078	6.3938
2.58304	6.4014
2.57534	6.4204
2.56768	6.4162
2.56008	6.3938
2.55251	6.3877
2.54499	6.3974
2.53752	6.4038
2.53009	6.3857
2.5227	6.4065
2.51536	6.3735
2.50806	6.3916
2.5008	6.4172
2.49358	6.4094
2.4864	6.3926
2.47927	6.3987
2.47218	6.3623
2.46512	6.343
2.45811	6.375
2.45114	6.3967
2.4442	6.3525
2.43731	6.3877
2.43045	6.3896
2.42363	6.3828
2.41685	6.3498
2.41011	6.3623
2.40341	6.3762
2.39674	6.3518
2.39011	6.3398
2.38352	6.3418
2.37696	6.3584
2.37044	6.3684
2.36395	6.376
2.35751	6.341
2.35109	6.3945
2.34471	6.3769
2.33836	6.3764
2.33205	6.3574
2.32578	6.334
2.31953	6.3642
2.31332	6.3647
2.30714	6.3852
2.301	6.4077
2.29489	6.4048
2.28881	6.3725
2.28276	6.3799
2.27675	6.4131
2.27076	6.3877
2.26481	6.4306
2.25889	6.4101
2.253	6.3965
2.24714	6.4145
2.24131	6.4321
2.23551	6.4277
2.22974	6.4223
2.224	6.4472
2.21829	6.48
2.21261	6.4101
2.20696	6.418
2.20134	6.4326
2.19574	6.4453
2.19018	6.4595
2.18464	6.4697
2.17913	6.4541
2.17365	6.5005
2.16819	6.5303
2.16277	6.518
2.15737	6.52
2.15199	6.5039
2.14665	6.5078
2.14133	6.5381
2.13603	6.5312
2.13077	6.5
2.12552	6.563
2.12031	6.5234
2.11512	6.5722
2.10995	6.5742
2.10481	6.602
2.0997	6.5918
2.09461	6.6372
2.08954	6.6514
2.0845	6.6299
2.07948	6.6514
