Name: Staurolite (Fe+2,Mg,Zn)2Al9(Si,Al)4O22(OH)2
Type: Mineral
Class: Silicates
Subclass: Nesosilicates (Framework silicates);
Particle Size: Solid (fracture surface)
Sample No.: staurol.1
Owner: JHU
Wavelength Range: IR
Origin: Rubellita, Minas Gerais, Brazil via the Smithsonian (sample no.
Description: Sample was a large, dark brown, prismatic crystal with
Measurement: Bidirectional reflectance
X Units: Wavelength (micrometers)
Y Units: Reflectance (percent)
wavelength	value
25.0442	11.4824
24.3388	12.6347
23.6719	14.1093
23.0407	14.4338
22.4422	11.1877
21.8741	10.8078
21.334	12.1919
20.8199	13.6367
20.33	13.8479
19.8627	13.5503
19.4163	14.6816
18.9896	15.5136
18.5812	15.6806
18.19	15.0913
17.815	14.4006
17.4551	14.9597
17.1094	16.8745
16.7772	18.1794
16.4576	18.4702
16.15	19.083
15.8537	19.9172
15.568	20.9279
15.2925	21.1242
15.0265	20.7844
14.7697	20.9277
14.5214	21.8532
14.2814	21.7099
14.0492	19.8002
13.8244	16.6608
13.6067	13.3252
13.3957	10.3676
13.1912	9.894
12.9929	9.3457
12.8004	7.571
12.6135	5.4526
12.432	3.4958
12.2557	3.2019
12.0843	3.8098
11.9176	4.4787
11.7555	4.987
11.5977	5.4595
11.444	6.3078
11.2944	6.8777
11.1487	7.5312
11.0067	8.074
10.8682	9.2541
10.7332	10.6313
10.6015	11.914
10.473	13.0573
10.3476	14.5014
10.2251	16.3261
10.1056	18.1865
9.98873	19.7387
9.87458	20.6469
9.763	20.5764
9.65392	19.4514
9.54724	17.9995
9.44291	16.779
9.34082	16.3869
9.24091	14.7251
9.14312	10.9138
9.04739	6.2961
8.95363	2.8457
8.8618	1.5066
8.77183	1.5771
8.68368	1.833
8.59727	2.1055
8.51257	2.3022
8.42951	2.47
8.34807	2.6587
8.26819	2.8464
8.18981	2.8523
8.11292	2.7143
8.03745	2.5757
7.96337	2.4643
7.89064	2.4358
7.81924	2.4802
7.74911	2.5493
7.68023	2.6335
7.61256	2.6977
7.54608	2.7729
7.48074	2.8437
7.41653	2.9072
7.35341	2.9653
7.29136	3.0163
7.23034	3.0642
7.17033	3.116
7.11132	3.1728
7.05327	3.2156
6.99616	3.2595
6.93996	3.2915
6.88467	3.3325
6.83024	3.3557
6.77667	3.4067
6.72393	3.4346
6.67201	3.459
6.62089	3.4961
6.57054	3.5085
6.52095	3.5415
6.4721	3.5727
6.42398	3.5994
6.37657	3.6389
6.32986	3.665
6.28382	3.7034
6.23845	3.7273
6.19373	3.7485
6.14965	3.7766
6.10619	3.7905
6.06334	3.8122
6.02109	3.8335
5.97942	3.8474
5.93832	3.8464
5.89778	3.8689
5.8578	3.8938
5.81835	3.8921
5.77943	3.9182
5.74103	3.9341
5.70314	3.9517
5.66574	3.9797
5.62883	3.9831
5.5924	3.9912
5.55644	4.009
5.52093	4.0137
5.48588	4.0303
5.45127	4.053
5.41709	4.0552
5.38334	4.0749
5.35	4.0893
5.31708	4.1157
5.28456	4.1204
5.25243	4.1343
5.2207	4.1536
5.18934	4.1628
5.15836	4.1811
5.12775	4.1977
5.09749	4.2219
5.0676	4.2449
5.03805	4.2583
5.00884	4.2895
4.97998	4.3152
4.95144	4.3415
4.92322	4.355
4.89533	4.3674
4.86775	4.4053
4.84048	4.4226
4.81351	4.4521
4.78684	4.4658
4.76047	4.479
4.73439	4.5083
4.70859	4.5115
4.68306	4.5283
4.65782	4.5571
4.63284	4.5757
4.60814	4.5974
4.58369	4.6072
4.5595	4.6191
4.53557	4.6291
4.51188	4.6453
4.48845	4.6614
4.46525	4.6655
4.44229	4.676
4.41957	4.6865
4.39708	4.6897
4.37481	4.7078
4.35277	4.7109
4.33096	4.7102
4.30935	4.707
4.28797	4.719
4.26679	4.7209
4.24583	4.7226
4.22506	4.73
4.2045	4.7319
4.18414	4.737
4.16398	4.7424
4.14401	4.7349
4.12423	4.7309
4.10464	4.7353
4.08523	4.7402
4.066	4.741
4.04696	4.7366
4.02809	4.7449
4.0094	4.748
3.99088	4.7324
3.97253	4.7392
3.95435	4.7309
3.93634	4.7241
3.91848	4.7312
3.90079	4.7212
3.88326	4.7329
3.86589	4.7231
3.84867	4.7263
3.8316	4.7153
3.81468	4.7161
3.79791	4.706
3.78129	4.7078
3.76482	4.7099
3.74848	4.698
3.73229	4.7031
3.71624	4.7007
3.70032	4.6838
3.68454	4.6782
3.6689	4.6648
3.65338	4.6619
3.638	4.6619
3.62275	4.6565
3.60762	4.6599
3.59262	4.6511
3.57775	4.6509
3.56299	4.6294
3.54836	4.6191
3.53385	4.6069
3.51945	4.5903
3.50517	4.5879
3.49101	4.5957
3.47696	4.6081
3.46303	4.5876
3.4492	4.5779
3.43549	4.5681
3.42188	4.5723
3.40838	4.5896
3.39499	4.5886
3.38171	4.5676
3.36852	4.5884
3.35544	4.5801
3.34246	4.5791
3.32958	4.5759
3.3168	4.5691
3.30411	4.5522
3.29153	4.5559
3.27903	4.5444
3.26664	4.5347
3.25433	4.5249
3.24212	4.5146
3.23	4.5222
3.21797	4.5129
3.20603	4.5098
3.19418	4.4917
3.18241	4.4922
3.17074	4.4905
3.15914	4.4709
3.14763	4.4712
3.13621	4.459
3.12487	4.4658
3.11361	4.4568
3.10243	4.4409
3.09133	4.4394
3.0803	4.438
3.06936	4.4219
3.0585	4.4119
3.04771	4.4043
3.037	4.4023
3.02636	4.4004
3.0158	4.3938
3.00531	4.3774
2.99489	4.3901
2.98454	4.3838
2.97427	4.3855
2.96407	4.3599
2.95393	4.3398
2.94387	4.3393
2.93387	4.3042
2.92394	4.2065
2.91408	4.1313
2.90429	4.0796
2.89456	4.0395
2.88489	3.9751
2.87529	3.938
2.86576	3.917
2.85628	3.9524
2.84687	3.9829
2.83752	4.0237
2.82823	4.0327
2.81901	4.0557
2.80984	4.0571
2.80073	4.0605
2.79168	4.0581
2.78269	4.0508
2.77376	4.0766
2.76488	4.0803
2.75606	4.061
2.7473	4.082
2.73859	4.0537
2.72994	4.0303
2.72134	4.0015
2.7128	3.9863
2.70431	3.9892
2.69587	4.0188
2.68748	4.0256
2.67915	4.0227
2.67087	4.0178
2.66264	4.009
2.65446	4.0102
2.64633	4.0132
2.63825	3.9878
2.63021	3.9761
2.62223	3.9797
2.6143	3.98
2.60641	3.9565
2.59857	3.9807
2.59078	3.967
2.58304	3.938
2.57534	3.9521
2.56768	3.9292
2.56008	3.9316
2.55251	3.936
2.54499	3.9067
2.53752	3.9221
2.53009	3.895
2.5227	3.8977
2.51536	3.8664
2.50806	3.8931
2.5008	3.8667
2.49358	3.876
2.4864	3.8433
2.47927	3.8782
2.47218	3.8808
2.46512	3.8486
2.45811	3.845
2.45114	3.8384
2.4442	3.831
2.43731	3.8332
2.43045	3.8166
2.42363	3.8301
2.41685	3.7988
2.41011	3.8118
2.40341	3.8213
2.39674	3.7942
2.39011	3.8071
2.38352	3.7617
2.37696	3.7998
2.37044	3.7954
2.36395	3.8008
2.35751	3.7705
2.35109	3.7783
2.34471	3.7913
2.33836	3.7981
2.33205	3.7851
2.32578	3.7695
2.31953	3.7817
2.31332	3.7993
2.30714	3.7827
2.301	3.7851
2.29489	3.7622
2.28881	3.7988
2.28276	3.8183
2.27675	3.7817
2.27076	3.792
2.26481	3.8037
2.25889	3.8037
2.253	3.7998
2.24714	3.7837
2.24131	3.7915
2.23551	3.7651
2.22974	3.7715
2.224	3.791
2.21829	3.8262
2.21261	3.8017
2.20696	3.812
2.20134	3.8213
2.19574	3.8501
2.19018	3.8623
2.18464	3.8799
2.17913	3.8516
2.17365	3.8613
2.16819	3.8657
2.16277	3.8818
2.15737	3.8701
2.15199	3.8559
2.14665	3.8457
2.14133	3.9082
2.13603	3.8931
2.13077	3.8916
2.12552	3.9243
2.12031	3.8769
2.11512	3.918
2.10995	3.9092
2.10481	3.9043
2.0997	3.9131
2.09461	3.9267
2.08954	3.9766
2.0845	3.999
2.07948	3.9394
