Name: Clinochlore (Mg,Fe+2)5Al(Si3Al)O10(OH)8
Type: Mineral
Class: Silicates
Subclass: Phyllosilicates (sheet silicates) (Chlorite Group)
Particle Size: Fine  (0-74 Micrometers)
Sample No.: clinochlore.1
Owner: JHU
Wavelength Range: IR
Origin: The Smithsonian (NMNH 83369), donated by Jim Crowley
Description: The sample was a green micaceous mass about 3 cm
Measurement: Bidirectional reflectance
X Units: Wavelength (micrometers)
Y Units: Reflectance (percent)
wavelength	value
25.044	2.9809
24.339	2.9612
23.672	3.0989
23.041	3.271
22.442	3.6282
21.874	4.0229
21.334	4.7153
20.82	4.7851
20.33	4.2766
19.863	4.436
19.416	4.3589
18.99	3.3747
18.581	2.209
18.19	1.665
17.815	1.6182
17.455	1.1841
17.109	1.3508
16.777	1.5618
16.458	1.6545
16.15	1.6958
15.854	1.7722
15.568	1.8721
15.292	1.9246
15.027	1.8667
14.77	1.7371
14.521	1.5542
14.281	1.3594
14.049	1.2903
13.824	1.3206
13.607	1.2993
13.396	1.3003
13.191	1.2805
12.993	1.2231
12.8	1.1873
12.614	1.1704
12.432	1.2449
12.256	1.2954
12.084	1.3452
11.918	1.6111
11.755	1.7681
11.598	1.8193
11.444	1.8699
11.294	1.9956
11.149	2.0623
11.007	2.0598
10.868	2.022
10.733	1.9724
10.602	2.0447
10.473	2.2471
10.348	2.3315
10.225	2.2971
10.106	2.4333
9.9887	2.7336
9.8746	3.3267
9.763	4.0432
9.6539	4.2986
9.5472	3.854
9.4429	3.4329
9.3408	3.4372
9.2409	3.4495
9.1431	3.5625
9.0474	3.7392
8.9536	2.97
8.8618	2.2031
8.7718	1.7573
8.6837	1.6003
8.5973	1.7258
8.5126	2.0349
8.4295	2.4111
8.3481	2.7903
8.2682	3.1851
8.1898	3.571
8.1129	3.8887
8.0374	4.1462
7.9634	4.3491
7.8906	4.5261
7.8192	4.7322
7.7491	4.9233
7.6802	5.0718
7.6126	5.1728
7.5461	5.2641
7.4807	5.3069
7.4165	5.3064
7.3534	5.4031
7.2914	5.5076
7.2303	5.6284
7.1703	5.7107
7.1113	5.7861
7.0533	5.8945
6.9962	5.9968
6.94	6.0337
6.8847	6.0605
6.8302	6.0837
6.7767	6.2261
6.7239	6.2829
6.672	6.3923
6.6209	6.4463
6.5705	6.4675
6.5209	6.366
6.4721	6.1553
6.424	5.9206
6.3766	5.6741
6.3299	5.439
6.2838	5.5168
6.2385	5.6172
6.1937	5.6806
6.1496	5.7295
6.1062	5.7954
6.0633	5.873
6.0211	5.9902
5.9794	6.0635
5.9383	6.1326
5.8978	6.2317
5.8578	6.375
5.8184	6.5115
5.7794	6.7085
5.741	6.947
5.7031	7.147
5.6657	7.292
5.6288	7.3755
5.5924	7.3933
5.5564	7.376
5.5209	7.5051
5.4859	7.5849
5.4513	7.7492
5.4171	7.9365
5.3833	8.1401
5.35	8.3454
5.3171	8.5332
5.2846	8.697
5.2524	8.8327
5.2207	8.9287
5.1893	8.9719
5.1584	8.9924
5.1277	8.9907
5.0975	9.0014
5.0676	9.0022
5.038	9.0427
5.0088	9.1081
4.98	9.2485
4.9514	9.4887
4.9232	9.79
4.8953	10.123
4.8678	10.427
4.8405	10.677
4.8135	10.901
4.7868	11.092
4.7605	11.323
4.7344	11.571
4.7086	11.835
4.6831	12.094
4.6578	12.365
4.6328	12.626
4.6081	12.85
4.5837	13.094
4.5595	13.348
4.5356	13.529
4.5119	13.66
4.4884	13.769
4.4652	13.842
4.4423	13.915
4.4196	13.976
4.3971	14.042
4.3748	14.079
4.3528	14.12
4.331	14.146
4.3094	14.176
4.288	14.215
4.2668	14.263
4.2458	14.306
4.2251	14.343
4.2045	14.365
4.1841	14.399
4.164	14.428
4.144	14.43
4.1242	14.444
4.1046	14.464
4.0852	14.454
4.066	14.464
4.047	14.433
4.0281	14.373
4.0094	14.256
3.9909	14.087
3.9725	13.984
3.9544	14.001
3.9363	14.045
3.9185	14.063
3.9008	14.095
3.8833	14.08
3.8659	14.068
3.8487	14.042
3.8316	13.996
3.8147	13.927
3.7979	13.894
3.7813	13.887
3.7648	13.845
3.7485	13.798
3.7323	13.696
3.7162	13.583
3.7003	13.541
3.6845	13.47
3.6689	13.397
3.6534	13.311
3.638	13.2
3.6227	13.087
3.6076	12.922
3.5926	12.729
3.5777	12.522
3.563	12.508
3.5484	12.418
3.5338	12.21
3.5195	11.862
3.5052	11.466
3.491	11.33
3.477	11.236
3.463	11.192
3.4492	10.991
3.4355	10.71
3.4219	10.343
3.4084	10.251
3.395	10.329
3.3817	10.166
3.3685	10.123
3.3554	10.211
3.3425	10.165
3.3296	10.087
3.3168	9.978
3.3041	9.8342
3.2915	9.6701
3.279	9.4819
3.2666	9.3296
3.2543	9.1723
3.2421	8.9956
3.23	8.8144
3.218	8.6103
3.206	8.3772
3.1942	8.1245
3.1824	7.8674
3.1707	7.5801
3.1591	7.2961
3.1476	6.979
3.1362	6.6958
3.1249	6.3857
3.1136	6.0903
3.1024	5.771
3.0913	5.4448
3.0803	5.113
3.0694	4.7898
3.0585	4.4773
3.0477	4.1892
3.037	3.8879
3.0264	3.6069
3.0158	3.3374
3.0053	3.0784
2.9949	2.8408
2.9845	2.6372
2.9743	2.4443
2.9641	2.279
2.9539	2.145
2.9439	2.0232
2.9339	1.9309
2.9239	1.8589
2.9141	1.7734
2.9043	1.7642
2.8946	1.782
2.8849	1.7883
2.8753	1.8455
2.8658	1.8699
2.8563	1.8748
2.8469	1.8479
2.8375	1.7632
2.8282	1.6335
2.819	1.5317
2.8098	1.4531
2.8007	1.3933
2.7917	1.3435
2.7827	1.3713
2.7738	1.4128
2.7649	1.5022
2.7561	1.6587
2.7473	1.8188
2.7386	2.0112
2.7299	2.2104
2.7213	2.2551
2.7128	2.5024
2.7043	5.2832
2.6959	8.4546
2.6875	10.342
2.6791	11.869
2.6709	13.103
2.6626	13.568
2.6545	13.725
2.6463	13.85
2.6382	13.996
2.6302	14.028
2.6222	13.998
2.6143	13.95
2.6064	13.841
2.5986	13.723
2.5908	13.609
2.583	13.497
2.5753	13.363
2.5677	13.287
2.5601	13.25
2.5525	13.292
2.545	13.342
2.5375	13.356
2.5301	13.291
2.5227	13.233
2.5154	13.202
2.5081	13.19
2.5008	13.196
2.4936	13.205
2.4864	13.219
2.4793	13.148
2.4722	13.114
2.4651	13.101
2.4581	13.241
2.4511	13.38
2.4442	13.506
2.4373	13.61
2.4305	13.733
2.4236	13.875
2.4169	14.039
2.4101	14.061
2.4034	13.871
2.3967	13.643
2.3901	13.538
2.3835	13.537
2.377	13.587
2.3704	13.542
2.364	13.332
2.3575	13.128
2.3511	12.884
2.3447	12.584
2.3384	12.173
2.3321	11.982
2.3258	11.881
2.3195	11.985
2.3133	12.25
2.3071	12.565
2.301	12.653
2.2949	12.768
2.2888	13.084
2.2828	13.562
2.2767	13.857
2.2708	13.943
2.2648	14.011
2.2589	13.984
2.253	13.903
2.2471	13.849
2.2413	13.9
2.2355	14.291
2.2297	14.734
2.224	15.115
2.2183	15.351
2.2126	15.522
2.207	15.601
2.2013	15.736
2.1957	15.801
2.1902	15.878
2.1846	15.974
2.1791	16.058
2.1736	16.107
2.1682	16.164
2.1628	16.199
2.1574	16.229
2.152	16.167
2.1466	16.17
2.1413	16.189
2.136	16.193
2.1308	16.205
2.1255	16.212
2.1203	16.238
2.1151	16.239
2.11	16.225
2.1048	16.223
2.0997	16.279
2.0946	16.322
2.0895	16.464
2.0845	16.461
2.0795	16.442
