Name: Jadeite Na(Al,Fe+3)Si2O6
Type: Mineral
Class: Silicates
Subclass: Inosilicates (Chain Silicates); (Pyroxene Group)
Particle Size: Fine  (Less than 2 micrometers)
Sample No.: jadeite.1
Owner: JHU
Wavelength Range: IR
Origin: Tibet, China via the Smithsonian (sample no. NMNH B18463).
Description: The sample was a single 1 cm x 4 cm piece weighing 11.5
Measurement: Transmission
X Units: Wavelength (micrometers)
Y Units: Transmittance (percent)
wavelength	value
25.0442	38.0468
24.3388	54.1444
23.6719	43.539
23.0407	28.6484
22.4422	28.7909
21.8741	17.8085
21.334	14.414
20.8199	14.9296
20.33	16.8007
19.8627	20.8066
19.4163	23.7988
18.9896	25.0624
18.5812	31.2655
18.19	51.5008
17.815	55.4022
17.4551	41.328
17.1094	26.0781
16.7772	26.3691
16.4576	29.579
16.15	41.5975
15.8537	61.6034
15.568	72.2117
15.2925	72.9881
15.0265	62.0233
14.7697	75.8299
14.5214	80.5789
14.2814	81.906
14.0492	82.2029
13.8244	81.8181
13.6067	80.5066
13.3957	71.6863
13.1912	79.6892
12.9929	80.617
12.8004	79.7019
12.6135	78.6077
12.432	76.5643
12.2557	73.5648
12.0843	68.3416
11.9176	59.5902
11.7555	45.8265
11.5977	44.6132
11.444	45.9789
11.2944	39.2733
11.1487	31.1606
11.0067	24.4296
10.8682	20.2133
10.7332	20.0473
10.6015	21.8896
10.473	23.0673
10.3476	20.1874
10.2251	14.542
10.1056	10.1255
9.98873	11.1484
9.87458	16.5141
9.763	20.1269
9.65392	19.2543
9.54724	14.4863
9.44291	13.854
9.34082	13.4375
9.24091	15.5341
9.14312	15.8271
9.04739	16.4628
8.95363	19.2636
8.8618	24.8027
8.77183	32.0448
8.68368	40.0126
8.59727	46.9652
8.51257	53.3358
8.42951	59.0023
8.34807	63.8924
8.26819	68.043
8.18981	71.3282
8.11292	74.0928
8.03745	76.2674
7.96337	78.0059
7.89064	79.5779
7.81924	81.0516
7.74911	82.0774
7.68023	83.0633
7.61256	84.1765
7.54608	84.9854
7.48074	85.6282
7.41653	86.3467
7.35341	87.0108
7.29136	87.5401
7.23034	87.9658
7.17033	87.9375
7.11132	88.1238
7.05327	88.4053
6.99616	88.531
6.93996	87.8845
6.88467	88.3008
6.83024	89.2686
6.77667	89.4949
6.72393	90.0086
6.67201	90.7764
6.62089	91.376
6.57054	91.6192
6.52095	91.6621
6.4721	91.7529
6.42398	91.6013
6.37657	91.1643
6.32986	90.4951
6.28382	89.4541
6.23845	88.0134
6.19373	86.1114
6.14965	84.6638
6.10619	85.4451
6.06334	86.3015
6.02109	85.2647
5.97942	86.1065
5.93832	90.0235
5.89778	92.6719
5.8578	94.0388
5.81835	94.4456
5.77943	94.5957
5.74103	94.5496
5.70314	94.6101
5.66574	94.7131
5.62883	94.8525
5.5924	94.9954
5.55644	95.207
5.52093	95.3516
5.48588	95.334
5.45127	95.5378
5.41709	96.0095
5.38334	96.3064
5.35	96.5156
5.31708	96.6638
5.28456	96.7451
5.25243	96.8142
5.2207	96.9128
5.18934	97.0085
5.15836	97.0798
5.12775	97.0828
5.09749	97.0977
5.0676	97.154
5.03805	97.1389
5.00884	97.2283
4.97998	97.2029
4.95144	97.2629
4.92322	97.3508
4.89533	97.385
4.86775	97.4504
4.84048	97.5481
4.81351	97.5959
4.78684	97.6228
4.76047	97.6697
4.73439	97.7024
4.70859	97.7336
4.68306	97.8303
4.65782	97.7966
4.63284	97.8855
4.60814	97.885
4.58369	97.9416
4.5595	97.8674
4.53557	98.0232
4.51188	97.9387
4.48845	98.0432
4.46525	98.0818
4.44229	97.9978
4.41957	98.032
4.39708	98.03
4.37481	98.0935
4.35277	98.0959
4.33096	98.0852
4.30935	98.0183
4.28797	98.0622
4.26679	98.0017
4.24583	98.0408
4.22506	98.0574
4.2045	98.0232
4.18414	98.0203
4.16398	98.0417
4.14401	98.03
4.12423	98.0315
4.10464	98.1287
4.08523	98.012
4.066	98.029
4.04696	98.0359
4.02809	98.073
4.0094	97.9714
3.99088	97.9143
3.97253	97.9021
3.95435	97.9143
3.93634	97.9246
3.91848	97.9236
3.90079	97.9099
3.88326	97.7527
3.86589	97.7478
3.84867	97.6589
3.8316	97.6511
3.81468	97.5906
3.79791	97.5701
3.78129	97.4382
3.76482	97.3894
3.74848	97.342
3.73229	97.2986
3.71624	97.1951
3.70032	97.0373
3.68454	97.053
3.6689	96.9412
3.65338	96.8894
3.638	96.8845
3.62275	96.717
3.60762	96.5979
3.59262	96.5061
3.57775	96.5535
3.56299	96.3396
3.54836	96.2737
3.53385	96.2678
3.51945	96.2073
3.50517	96.2463
3.49101	96.053
3.47696	96.0139
3.46303	95.9812
3.4492	95.8772
3.43549	95.7048
3.42188	95.5471
3.40838	95.2971
3.39499	95.0701
3.38171	94.7087
3.36852	94.5491
3.35544	94.1721
3.34246	93.9021
3.32958	93.7795
3.3168	93.6096
3.30411	93.4221
3.29153	93.1345
3.27903	92.9822
3.26664	92.782
3.25433	92.5061
3.24212	92.2712
3.23	92.0076
3.21797	91.5994
3.20603	91.3396
3.19418	91.033
3.18241	90.7293
3.17074	90.3338
3.15914	89.9129
3.14763	89.3797
3.13621	88.7478
3.12487	88.157
3.11361	87.8162
3.10243	87.6511
3.09133	87.5037
3.0803	87.074
3.06936	86.7429
3.0585	86.5281
3.04771	86.5398
3.037	86.1609
3.02636	85.5818
3.0158	84.7244
3.00531	83.8094
2.99489	83.2244
2.98454	82.5603
2.97427	81.5867
2.96407	80.4744
2.95393	79.5857
2.94387	79.0789
2.93387	78.4978
2.92394	77.9539
2.91408	77.8592
2.90429	78.0506
2.89456	78.41
2.88489	79.1014
2.87529	79.699
2.86576	80.5906
2.85628	81.6756
2.84687	82.6336
2.83752	83.3474
2.82823	83.9197
2.81901	84.5935
2.80984	85.117
2.80073	85.8943
2.79168	86.6961
2.78269	87.7498
2.77376	88.5789
2.76488	89.489
2.75606	90.6209
2.7473	91.5271
2.73859	92.3865
2.72994	92.906
2.72134	93.4529
2.7128	93.6716
2.70431	93.6882
2.69587	94.0193
2.68748	93.9031
2.67915	94.1443
2.67087	94.2781
2.66264	94.075
2.65446	94.1062
2.64633	93.7664
2.63825	93.8796
2.63021	94.0037
2.62223	93.864
2.6143	93.6755
2.60641	93.7195
2.59857	93.6218
2.59078	93.6482
2.58304	93.7927
2.57534	93.3962
2.56768	93.324
2.56008	93.5056
2.55251	93.2849
2.54499	93.2283
2.53752	93.4177
2.53009	93.2752
2.5227	92.9568
2.51536	93.1834
2.50806	93.2361
2.5008	93.1209
2.49358	93.0173
2.4864	92.9705
2.47927	92.7732
2.47218	92.7146
2.46512	93.0095
2.45811	92.988
2.45114	92.8943
2.4442	92.5466
2.43731	92.6345
2.43045	92.658
2.42363	92.8318
2.41685	92.5584
2.41011	92.6502
2.40341	92.4998
2.39674	92.4451
2.39011	92.3357
2.38352	92.3533
2.37696	92.3787
2.37044	92.2439
2.36395	92.117
2.35751	92.1111
2.35109	92.3474
2.34471	92.3045
2.33836	91.9627
2.33205	91.8982
2.32578	91.9177
2.31953	91.6834
2.31332	91.781
2.30714	91.906
2.301	91.7263
2.29489	91.5877
2.28881	91.6814
2.28276	91.6423
2.27675	91.4392
2.27076	91.7517
2.26481	91.7439
2.25889	91.281
2.253	91.5017
2.24714	91.2908
2.24131	91.2185
2.23551	90.9158
2.22974	91.2361
2.224	91.3455
2.21829	91.2263
2.21261	91.1267
2.20696	91.1736
2.20134	91.1892
2.19574	90.8201
2.19018	90.9959
2.18464	90.9646
2.17913	90.5935
2.17365	91.1091
2.16819	91.0388
2.16277	90.8865
2.15737	90.8982
2.15199	90.5505
2.14665	90.3865
2.14133	90.3552
2.13603	90.4451
2.13077	90.5623
2.12552	90.2459
2.12031	90.531
2.11512	90.3201
2.10995	90.2459
2.10481	90.3045
2.0997	90.363
2.09461	90.2732
2.08954	89.9334
2.0845	90.5935
2.07948	90.2381
