Name: Erionite (K2,Ca,Na2)2Al4Si14O36.15H2O
Type: Mineral
Class: Silicates
Subclass: Tectosilicates  (Zeolite Group)
Particle Size: Fine  (less than 2 Micrometers)
Sample No.: erionite.1
Owner: JHU
Wavelength Range: IR
Origin: Donated by W. J. Ehmann;  Sample #15 from Rome, Oregon.
Description: The hand sample was a cream-colored, earthy mass.  As
Measurement: Transmission
X Units: Wavelength (micrometers)
Y Units: Transmittance (percent)
wavelength	value
25.0442	50.6327
24.3388	48.953
23.6719	43.7186
23.0407	37.9921
22.4422	34.8046
21.8741	30.8222
21.334	28.9101
20.8199	33.8593
20.33	43.5233
19.8627	49.1092
19.4163	51.0819
18.9896	54.9061
18.5812	57.4227
18.19	59.0038
17.815	60.2186
17.4551	59.3748
17.1094	57.5643
16.7772	58.9998
16.4576	61.2479
16.15	61.8504
15.8537	61.7996
15.568	62.9539
15.2925	65.575
15.0265	66.1727
14.7697	65.8836
14.5214	65.1336
14.2814	64.243
14.0492	64.2117
13.8244	64.0863
13.6067	64.4827
13.3957	65.182
13.1912	65.3812
12.9929	64.5355
12.8004	61.141
12.6135	62.7479
12.432	65.1073
12.2557	73.5823
12.0843	76.5857
11.9176	76.4119
11.7555	73.0433
11.5977	68.2698
11.444	63.7913
11.2944	60.6156
11.1487	58.036
11.0067	55.4354
10.8682	52.7098
10.7332	49.3964
10.6015	45.0331
10.473	39.5458
10.3476	33.0839
10.2251	26.0156
10.1056	19.4106
9.98873	14.2754
9.87458	10.7231
9.763	8.4419
9.65392	7.0141
9.54724	6.4507
9.44291	6.2695
9.34082	6.5801
9.24091	6.8677
9.14312	7.6509
9.04739	9.4262
8.95363	11.6606
8.8618	14.0664
8.77183	16.1919
8.68368	18.5693
8.59727	21.2138
8.51257	24.9023
8.42951	30.3363
8.34807	37.1085
8.26819	45.1105
8.18981	53.6962
8.11292	61.6602
8.03745	67.9837
7.96337	72.3592
7.89064	75.2881
7.81924	77.6124
7.74911	79.3809
7.68023	80.8575
7.61256	81.9226
7.54608	82.989
7.48074	83.8562
7.41653	84.5135
7.35341	84.947
7.29136	85.3269
7.23034	85.6975
7.17033	85.2664
7.11132	85.3555
7.05327	86.1465
6.99616	86.4802
6.93996	86.7656
6.88467	86.8653
6.83024	86.9724
6.77667	87.5271
6.72393	88.169
6.67201	88.7666
6.62089	89.086
6.57054	89.2215
6.52095	89.1726
6.4721	89.0047
6.42398	88.6873
6.37657	88.3299
6.32986	87.5567
6.28382	86.5799
6.23845	85.2361
6.19373	82.6355
6.14965	79.4793
6.10619	78.8211
6.06334	79.782
6.02109	81.1292
5.97942	83.127
5.93832	85.5752
5.89778	87.6604
5.8578	89.0095
5.81835	89.865
5.77943	90.4717
5.74103	90.8347
5.70314	91.1384
5.66574	91.4111
5.62883	91.5156
5.5924	91.6221
5.55644	91.6741
5.52093	91.8135
5.48588	91.9378
5.45127	92.0852
5.41709	92.1738
5.38334	92.198
5.35	92.1453
5.31708	92.2869
5.28456	92.3972
5.25243	92.5156
5.2207	92.6846
5.18934	92.8015
5.15836	92.8943
5.12775	92.9912
5.09749	93.0449
5.0676	93.0508
5.03805	93.0801
5.00884	93.1377
4.97998	93.1326
4.95144	93.2854
4.92322	93.3279
4.89533	93.4255
4.86775	93.4026
4.84048	93.4919
4.81351	93.4724
4.78684	93.5549
4.76047	93.5203
4.73439	93.5413
4.70859	93.4045
4.68306	93.4685
4.65782	93.4451
4.63284	93.469
4.60814	93.5999
4.58369	93.5232
4.5595	93.533
4.53557	93.5164
4.51188	93.4597
4.48845	93.4871
4.46525	93.4627
4.44229	93.4382
4.41957	93.5007
4.39708	93.4519
4.37481	93.4753
4.35277	93.552
4.33096	93.5549
4.30935	93.5837
4.28797	93.5798
4.26679	93.5818
4.24583	93.6609
4.22506	93.6609
4.2045	93.6838
4.18414	93.6912
4.16398	93.7556
4.14401	93.7405
4.12423	93.8396
4.10464	93.8347
4.08523	93.8503
4.066	93.844
4.04696	93.844
4.02809	93.9011
4.0094	93.8938
3.99088	93.8718
3.97253	93.8152
3.95435	93.8484
3.93634	93.8289
3.91848	93.8494
3.90079	93.7971
3.88326	93.7068
3.86589	93.656
3.84867	93.5979
3.8316	93.4788
3.81468	93.4539
3.79791	93.3533
3.78129	93.2581
3.76482	93.1389
3.74848	92.9402
3.73229	92.8484
3.71624	92.7722
3.70032	92.5505
3.68454	92.4431
3.6689	92.2776
3.65338	92.0525
3.638	91.8948
3.62275	91.6287
3.60762	91.3674
3.59262	91.2595
3.57775	91.0198
3.56299	90.7156
3.54836	90.4475
3.53385	90.0427
3.51945	89.5906
3.50517	88.491
3.49101	88.5427
3.47696	88.3123
3.46303	88.0237
3.4492	87.4422
3.43549	86.7273
3.42188	85.5222
3.40838	85.2503
3.39499	85.5296
3.38171	85.0789
3.36852	84.8245
3.35544	84.7425
3.34246	84.2996
3.32958	83.8074
3.3168	83.2073
3.30411	82.6404
3.29153	82.1092
3.27903	81.4656
3.26664	80.7698
3.25433	80.012
3.24212	79.2498
3.23	78.4803
3.21797	77.5433
3.20603	76.7732
3.19418	75.9002
3.18241	75.2933
3.17074	74.3611
3.15914	73.533
3.14763	72.6531
3.13621	71.7498
3.12487	71.0154
3.11361	70.1551
3.10243	69.4666
3.09133	68.8436
3.0803	68.1668
3.06936	67.659
3.0585	67.1375
3.04771	66.5955
3.037	66.1688
3.02636	65.7088
3.0158	65.0672
3.00531	64.3944
2.99489	63.7254
2.98454	63.1688
2.97427	62.576
2.96407	62.203
2.95393	61.8319
2.94387	61.7108
2.93387	61.5682
2.92394	61.4383
2.91408	61.5936
2.90429	61.8709
2.89456	61.9071
2.88489	62.3299
2.87529	62.4764
2.86576	63.0086
2.85628	63.6131
2.84687	64.368
2.83752	65.0711
2.82823	65.6287
2.81901	66.199
2.80984	66.8416
2.80073	67.5633
2.79168	68.4022
2.78269	69.2381
2.77376	70.3611
2.76488	71.6815
2.75606	73.6873
2.7473	76.2391
2.73859	78.9109
2.72994	81.8055
2.72134	84.031
2.7128	85.657
2.70431	86.9783
2.69587	87.8904
2.68748	88.5047
2.67915	88.8396
2.67087	89.0359
2.66264	89.1843
2.65446	89.4002
2.64633	89.5086
2.63825	89.6599
2.63021	89.7351
2.62223	89.6521
2.6143	89.6257
2.60641	89.6326
2.59857	89.9295
2.59078	90.0056
2.58304	90.2146
2.57534	90.0554
2.56768	90.0271
2.56008	89.9802
2.55251	90.0506
2.54499	89.992
2.53752	90.075
2.53009	89.9685
2.5227	89.822
2.51536	89.9334
2.50806	90.1716
2.5008	90.1033
2.49358	89.9939
2.4864	90.033
2.47927	89.9685
2.47218	90.0408
2.46512	89.9802
2.45811	90.1189
2.45114	90.1697
2.4442	90.1443
2.43731	90.031
2.43045	89.9451
2.42363	89.9939
2.41685	90.0017
2.41011	90.2498
2.40341	90.3142
2.39674	90.0994
2.39011	90.0779
2.38352	90.0857
2.37696	90.1091
2.37044	90.1111
2.36395	89.9392
2.35751	89.8982
2.35109	89.7966
2.34471	90.0896
2.33836	89.9724
2.33205	89.8279
2.32578	89.7654
2.31953	90.0466
2.31332	90.1716
2.30714	89.8767
2.301	89.7966
2.29489	89.908
2.28881	89.824
2.28276	89.533
2.27675	89.7654
2.27076	89.6033
2.26481	89.7966
2.25889	89.6892
2.253	89.7966
2.24714	89.781
2.24131	89.5408
2.23551	89.658
2.22974	89.5154
2.224	89.5701
2.21829	89.4236
2.21261	89.5564
2.20696	89.572
2.20134	89.3045
2.19574	89.1404
2.19018	89.3357
2.18464	89.4177
2.17913	89.2771
2.17365	89.3279
2.16819	89.4451
2.16277	89.6795
2.15737	89.4607
2.15199	89.1404
2.14665	89.3435
2.14133	89.2654
2.13603	89.2654
2.13077	89.4705
2.12552	89.5076
2.12031	89.156
2.11512	89.1873
2.10995	89.1756
2.10481	89.2498
2.0997	89.3709
2.09461	89.2146
2.08954	89.1013
2.0845	89.1091
2.07948	88.6482
