Name: Sandstone (Micaceous Red)
Type: Rocks
Class: Sedimentary
Subclass: Sandstone
Particle Size: 0 - 75 Micrometers
Sample No.: sandstone.3
Owner: JHU
Wavelength Range: All
Origin: Sample No. 363,  The Hunt and Salisbury Collection at the U.S.
Description: Sample consists of subangular to subrounded quartz
Measurement: Directional (10 Degree) Hemispherical Reflectance
X Units: Wavelength (micrometers)
Y Units: Reflectance (percent)
wavelength	value
14.983	3.5172
14.645	3.755
14.321	3.0206
14.011	3.969
13.715	2.9135
13.43	3.8741
13.158	4.168
12.896	4.4079
12.644	4.2755
12.402	4.2352
12.169	4.6437
11.945	5.9602
11.729	6.2119
11.52	5.6097
11.319	5.1924
11.125	5.5514
10.937	4.463
10.755	4.4
10.58	4.5407
10.41	4.4978
10.245	4.0072
10.086	3.7933
9.931	3.9006
9.781	4.1024
9.636	4.5372
9.495	5.052
9.358	6.1899
9.225	6.8902
9.095	7.0095
8.969	7.2428
8.847	7.5338
8.727	7.6899
8.612	7.1168
8.499	8.6464
8.389	8.9654
8.281	10.309
8.177	10.987
8.075	9.5385
7.976	8.7932
7.879	8.0645
7.784	7.5168
7.692	7.2807
7.601	7.4303
7.513	7.104
7.427	6.8383
7.343	6.332
7.261	5.936
7.18	5.6393
7.102	5.7534
7.025	7.3356
6.949	6.9882
6.875	6.6976
6.803	6.7147
6.733	6.8916
6.663	7.6165
6.596	8.6061
6.529	9.9761
6.464	12.191
6.4	13.04
6.338	11.136
6.276	7.7287
6.216	6.2967
6.157	6.7028
6.099	7.4488
6.042	8.1145
5.986	8.4643
5.931	8.6199
5.878	10.288
5.825	11.919
5.773	13
5.722	13.719
5.672	13.157
5.623	10.958
5.574	9.7282
5.527	8.5715
5.48	9.4932
5.434	13.89
5.389	12.923
5.345	11.982
5.301	13.09
5.258	15.784
5.215	20.337
5.174	21.97
5.133	22.314
5.093	22.27
5.053	21.362
5.014	21.808
4.975	23.696
4.937	26.911
4.9	31.327
4.863	36.023
4.827	37.831
4.791	38.843
4.756	39.622
4.721	39.923
4.687	38.653
4.654	37.598
4.62	38.003
4.588	39.581
4.556	41.18
4.524	41.389
4.492	40.978
4.461	40.562
4.431	41.168
4.401	42.745
4.371	44.307
4.342	44.686
4.313	44.065
4.284	43.59
4.256	43.827
4.229	44.56
4.201	44.916
4.174	44.985
4.147	44.752
4.121	44.853
4.095	44.451
4.069	43.262
4.044	40.966
4.019	36.44
3.994	28.986
3.97	21.221
3.945	20.817
3.921	22.054
3.898	25.774
3.875	27.193
3.852	31.844
3.829	32.699
3.806	28.182
3.784	31.92
3.762	37.211
3.74	42.01
3.719	43.408
3.698	43.917
3.677	44.089
3.656	43.859
3.636	43.508
3.615	42.908
3.595	42.246
3.575	41.451
3.556	39.791
3.536	38.444
3.517	35.374
3.498	29.714
3.479	25.345
3.461	23.098
3.442	23.032
3.424	25.767
3.406	26.356
3.388	26.665
3.371	26.874
3.353	25.113
3.336	24.167
3.319	23.257
3.302	23.535
3.285	28.579
3.269	29.105
3.252	29.02
3.236	28.709
3.22	28.202
3.204	27.625
3.188	26.962
3.173	26.374
3.157	25.806
3.142	25.197
3.127	24.663
3.112	24.174
3.097	23.737
3.082	23.321
3.067	23.13
3.053	22.95
3.039	22.752
3.025	22.506
3.011	22.184
2.997	21.833
2.983	21.531
2.969	21.181
2.956	20.836
2.942	20.666
2.929	20.516
2.916	20.531
2.903	20.693
2.89	20.856
2.877	21.06
2.864	21.288
2.852	21.222
2.839	20.752
2.827	19.675
2.814	18.078
2.802	15.881
2.79	12.837
2.778	9.9688
2.766	8.0605
2.755	7.6788
2.743	8.9561
2.731	11.432
2.72	17.978
2.708	27.643
2.697	35.227
2.686	40.513
2.675	42.555
2.664	43.535
2.653	44.342
2.642	44.636
2.632	44.559
2.621	44.544
2.61	44.621
2.6	44.716
2.59	44.821
2.579	44.97
2.569	45.003
2.559	44.922
2.549	44.813
2.539	44.408
2.529	43.849
2.519	43.458
2.509	43.288
2.5	43.35
2.49	43.404
2.481	43.482
2.471	43.381
2.462	43.318
2.452	43.289
2.443	43.324
2.434	43.491
2.425	43.701
2.416	43.93
2.407	44.028
2.398	44.133
2.389	44.066
2.38	44.016
2.372	44.004
2.363	43.923
2.354	43.699
2.346	43.504
2.337	43.479
2.329	43.563
2.321	43.739
2.312	43.967
2.304	44.113
2.296	44.169
2.288	44.27
2.28	44.329
2.272	44.294
2.264	44.184
2.256	43.956
2.248	43.829
2.24	43.611
2.233	43.415
2.225	43.054
2.217	42.693
2.21	42.376
2.202	42.373
2.195	42.625
2.187	43.087
2.18	43.459
2.173	43.766
2.166	43.912
2.158	44.019
2.151	44.003
2.144	43.995
2.137	43.955
2.13	43.865
2.123	43.813
2.116	43.874
2.109	43.769
2.102	43.723
2.095	43.704
2.089	43.652
2.082	43.692
2.06	43.212
2.028	42.448
1.996	41.795
1.964	41.062
1.932	39.838
1.9	40.296
1.868	39.833
1.836	40.201
1.804	39.913
1.772	39.58
1.74	39.424
1.708	39.071
1.676	38.917
1.644	38.477
1.612	38.278
1.58	38.263
1.548	38.343
1.516	37.858
1.484	37.788
1.452	37.623
1.42	37.107
1.388	37.097
1.356	37.695
1.324	37.637
1.292	37.609
1.26	38.36
1.228	38.449
1.196	38.471
1.164	38.419
1.132	39.73
1.1	40.231
1.068	40.719
1.036	40.461
1.004	40.671
0.972	40.175
0.94	39.049
0.908	37.41
0.876	36.725
0.844	36.13
0.812	36.363
0.795	35.937
0.787	35.811
0.779	35.875
0.771	35.555
0.763	35.261
0.755	35.165
0.747	34.837
0.739	34.288
0.731	33.965
0.723	33.228
0.715	32.411
0.707	31.768
0.699	31.505
0.691	30.757
0.683	30.245
0.675	29.544
0.667	29.343
0.659	28.58
0.651	27.864
0.643	27.27
0.635	26.867
0.627	26.238
0.619	25.657
0.611	25.025
0.603	24.054
0.595	23.33
0.587	22.021
0.579	20.411
0.571	18.71
0.563	16.682
0.555	14.87
0.547	13.967
0.539	13.079
0.531	12.733
0.523	12.215
0.515	12.105
0.507	11.813
0.499	11.548
0.491	11.31
0.483	11.213
0.475	10.94
0.467	10.797
0.459	10.498
0.451	10.124
0.443	9.9465
0.435	9.8847
0.427	9.8239
0.419	9.6164
0.411	9.4766
0.403	9.3701
