Name: Riebeckite Na2(Fe+2,Mg)3Fe2+3Si8O22(OH)2
Type: Mineral
Class: Silicates
Subclass: Inosilicates (chain silicates); (Amphibole Group)
Particle Size: Coarse  (75 - 250  Micrometers)
Sample No.: riebeck.1
Owner: JHU
Wavelength Range: IR
Origin: Hurricane Mountain, Conway, New Hampshire via the
Description: The sample was an 11.54 g portion of a black crystal.
Measurement: Bidirectional reflectance
X Units: Wavelength (micrometers)
Y Units: Reflectance (percent)
wavelength	value
25.0442	6.3525
24.3388	6.4931
23.6719	6.7866
23.0407	7.9375
22.4422	10.1045
21.8741	11.2104
21.334	10.8506
20.8199	12.2102
20.33	13.0966
19.8627	13.2058
19.4163	12.6382
18.9896	9.1863
18.5812	8.9912
18.19	10.4255
17.815	8.1972
17.4551	4.2378
17.1094	2.2607
16.7772	1.9514
16.4576	2.2021
16.15	2.4919
15.8537	2.7307
15.568	2.7771
15.2925	2.6445
15.0265	2.6736
14.7697	2.6191
14.5214	2.6999
14.2814	2.727
14.0492	2.8557
13.8244	2.9653
13.6067	3.1113
13.3957	3.2927
13.1912	3.2825
12.9929	3.1418
12.8004	3.0552
12.6135	3.2244
12.432	3.4163
12.2557	3.581
12.0843	3.7021
11.9176	3.8577
11.7555	4.0474
11.5977	4.2851
11.444	4.447
11.2944	4.5181
11.1487	4.6081
11.0067	4.8164
10.8682	5.2856
10.7332	5.9568
10.6015	7.0793
10.473	8.4324
10.3476	9.4065
10.2251	10.6069
10.1056	10.9846
9.98873	11.3747
9.87458	10.8825
9.763	10.707
9.65392	10.4287
9.54724	8.8874
9.44291	9.6587
9.34082	10.4416
9.24091	10.8442
9.14312	9.6489
9.04739	8.4421
8.95363	7.6382
8.8618	7.5537
8.77183	7.5688
8.68368	7.3816
8.59727	6.3992
8.51257	4.5996
8.42951	2.7768
8.34807	1.3828
8.26819	0.8149
8.18981	0.8643
8.11292	1.0225
8.03745	1.1765
7.96337	1.3228
7.89064	1.4663
7.81924	1.5808
7.74911	1.689
7.68023	1.7766
7.61256	1.8569
7.54608	1.949
7.48074	2.0583
7.41653	2.1641
7.35341	2.2498
7.29136	2.3166
7.23034	2.4206
7.17033	2.5227
7.11132	2.6435
7.05327	2.7756
6.99616	2.894
6.93996	3.0181
6.88467	3.1287
6.83024	3.2131
6.77667	3.2761
6.72393	3.3293
6.67201	3.3931
6.62089	3.4763
6.57054	3.5806
6.52095	3.676
6.4721	3.6621
6.42398	3.5339
6.37657	3.3342
6.32986	3.1145
6.28382	2.949
6.23845	2.8345
6.19373	2.7886
6.14965	2.8403
6.10619	2.9394
6.06334	3.0449
6.02109	3.1399
5.97942	3.1592
5.93832	3.115
5.89778	3.0703
5.8578	3.0344
5.81835	2.9985
5.77943	2.9829
5.74103	2.959
5.70314	2.937
5.66574	2.9175
5.62883	2.9241
5.5924	2.9729
5.55644	3.1035
5.52093	3.3061
5.48588	3.4895
5.45127	3.5705
5.41709	3.6699
5.38334	3.8381
5.35	4.031
5.31708	4.1826
5.28456	4.2856
5.25243	4.3704
5.2207	4.428
5.18934	4.488
5.15836	4.5657
5.12775	4.6575
5.09749	4.7292
5.0676	4.8071
5.03805	4.9033
5.00884	5.0024
4.97998	5.0964
4.95144	5.2285
4.92322	5.4021
4.89533	5.6291
4.86775	5.8227
4.84048	6.019
4.81351	6.1833
4.78684	6.3264
4.76047	6.4636
4.73439	6.6135
4.70859	6.802
4.68306	6.9968
4.65782	7.2029
4.63284	7.4534
4.60814	7.7492
4.58369	8.1033
4.5595	8.4114
4.53557	8.6816
4.51188	8.8938
4.48845	9.0984
4.46525	9.2539
4.44229	9.3913
4.41957	9.5246
4.39708	9.6277
4.37481	9.7109
4.35277	9.7759
4.33096	9.8323
4.30935	9.8833
4.28797	9.9372
4.26679	9.9519
4.24583	10.0432
4.22506	10.0874
4.2045	10.1626
4.18414	10.2221
4.16398	10.281
4.14401	10.3274
4.12423	10.3806
4.10464	10.4306
4.08523	10.4883
4.066	10.5442
4.04696	10.6115
4.02809	10.6792
4.0094	10.7353
3.99088	10.8056
3.97253	10.8615
3.95435	10.9363
3.93634	10.9948
3.91848	11.0622
3.90079	11.1194
3.88326	11.1675
3.86589	11.209
3.84867	11.2424
3.8316	11.2685
3.81468	11.311
3.79791	11.3437
3.78129	11.3886
3.76482	11.436
3.74848	11.4431
3.73229	11.5066
3.71624	11.5322
3.70032	11.5771
3.68454	11.6015
3.6689	11.645
3.65338	11.6723
3.638	11.6855
3.62275	11.7192
3.60762	11.7512
3.59262	11.7871
3.57775	11.8071
3.56299	11.8208
3.54836	11.8222
3.53385	11.8462
3.51945	11.8391
3.50517	11.8112
3.49101	11.8178
3.47696	11.8313
3.46303	11.7961
3.4492	11.7317
3.43549	11.7107
3.42188	11.6118
3.40838	11.4941
3.39499	11.4507
3.38171	11.4243
3.36852	11.4885
3.35544	11.605
3.34246	11.6953
3.32958	11.7343
3.3168	11.7285
3.30411	11.7632
3.29153	11.79
3.27903	11.8117
3.26664	11.7954
3.25433	11.7551
3.24212	11.7016
3.23	11.6286
3.21797	11.5798
3.20603	11.5346
3.19418	11.52
3.18241	11.4758
3.17074	11.4592
3.15914	11.4807
3.14763	11.4555
3.13621	11.415
3.12487	11.3864
3.11361	11.365
3.10243	11.3298
3.09133	11.292
3.0803	11.2705
3.06936	11.2339
3.0585	11.196
3.04771	11.1784
3.037	11.1596
3.02636	11.1645
3.0158	11.1335
3.00531	11.1018
2.99489	11.1098
2.98454	11.1064
2.97427	11.0908
2.96407	11.0669
2.95393	11.0425
2.94387	11.0415
2.93387	11.0415
2.92394	11.0185
2.91408	11.0246
2.90429	11.0051
2.89456	10.9841
2.88489	10.9128
2.87529	10.8816
2.86576	10.884
2.85628	10.9143
2.84687	10.9587
2.83752	11.0454
2.82823	11.0803
2.81901	11.0615
2.80984	11.0134
2.80073	10.8911
2.79168	10.6762
2.78269	10.1469
2.77376	6.8127
2.76488	3.7046
2.75606	5.5896
2.7473	4.4392
2.73859	4.7058
2.72994	8.6965
2.72134	10.0276
2.7128	11.4182
2.70431	11.4633
2.69587	12.2104
2.68748	12.7485
2.67915	12.9653
2.67087	12.9384
2.66264	12.9216
2.65446	12.8257
2.64633	12.9243
2.63825	12.988
2.63021	13.1042
2.62223	13.2136
2.6143	13.3017
2.60641	13.31
2.59857	13.2993
2.59078	13.3076
2.58304	13.2844
2.57534	13.2932
2.56768	13.2817
2.56008	13.3064
2.55251	13.2434
2.54499	13.2109
2.53752	13.1338
2.53009	12.9702
2.5227	12.9658
2.51536	12.9402
2.50806	12.9384
2.5008	12.9504
2.49358	12.9502
2.4864	13.0236
2.47927	13.1093
2.47218	13.1616
2.46512	13.1792
2.45811	13.2151
2.45114	13.0761
2.4442	12.9411
2.43731	12.8115
2.43045	12.4382
2.42363	12.0805
2.41685	11.8281
2.41011	11.8462
2.40341	12.0854
2.39674	12.4297
2.39011	12.7099
2.38352	12.9343
2.37696	12.9961
2.37044	12.9738
2.36395	12.6689
2.35751	11.958
2.35109	10.7944
2.34471	10.1264
2.33836	10.1899
2.33205	10.6826
2.32578	11.2075
2.31953	12.0195
2.31332	12.3091
2.30714	12.4663
2.301	12.6194
2.29489	12.8789
2.28881	12.9504
2.28276	12.9812
2.27675	13.0266
2.27076	13.0368
2.26481	13.0515
2.25889	13.0639
2.253	13.04
2.24714	13.0334
2.24131	13.0122
2.23551	12.9973
2.22974	12.9873
2.224	12.9709
2.21829	12.9167
2.21261	12.9853
2.20696	12.925
2.20134	12.8908
2.19574	12.9084
2.19018	12.8842
2.18464	12.8222
2.17913	12.801
2.17365	12.7978
2.16819	12.7915
2.16277	12.8264
2.15737	12.7719
2.15199	12.7063
2.14665	12.6826
2.14133	12.6757
2.13603	12.6792
2.13077	12.6557
2.12552	12.6777
2.12031	12.7114
2.11512	12.6982
2.10995	12.7031
2.10481	12.6611
2.0997	12.6631
2.09461	12.6985
2.08954	12.6884
2.0845	12.7168
2.07948	12.6738
