Name: Phlogopite KMg3Si3AlO10(F, OH)2
Type: Mineral
Class: Silicates
Subclass: Phyllosilicates (Sheet Silicates); (Mica Group)
Particle Size: Fine  (0 - 74  Micrometers)
Sample No.: phlogop.2
Owner: JHU
Wavelength Range: IR
Origin: Ontario, Canada via the Hunt and Salisbury Collection #23B
Description: This second sample of phlogopite also displayed the
Measurement: Bidirectional reflectance
X Units: Wavelength (micrometers)
Y Units: Reflectance (percent)
wavelength	value
25.0442	1.5166
24.3388	1.5872
23.6719	1.804
23.0407	1.8022
22.4422	1.937
21.8741	2.0635
21.334	2.3232
20.8199	2.2363
20.33	2.1594
19.8627	2.2725
19.4163	2.2915
18.9896	2.4614
18.5812	2.6194
18.19	2.6704
17.815	2.2041
17.4551	1.5505
17.1094	0.9729
16.7772	0.8332
16.4576	0.8311
16.15	0.772
15.8537	0.8223
15.568	0.8818
15.2925	0.8474
15.0265	0.8459
14.7697	0.8689
14.5214	0.8284
14.2814	0.8872
14.0492	0.9802
13.8244	0.9895
13.6067	1.0017
13.3957	1.1858
13.1912	1.3667
12.9929	1.512
12.8004	1.8872
12.6135	2.0459
12.432	1.8032
12.2557	1.6494
12.0843	2.2803
11.9176	2.7934
11.7555	2.6792
11.5977	2.6084
11.444	2.479
11.2944	2.1433
11.1487	1.7119
11.0067	1.5015
10.8682	1.4475
10.7332	1.4104
10.6015	1.3381
10.473	1.2766
10.3476	1.2895
10.2251	1.2974
10.1056	1.3447
9.98873	1.5947
9.87458	2.0439
9.763	2.3027
9.65392	2.1763
9.54724	2.0906
9.44291	2.0168
9.34082	2.0488
9.24091	2.2458
9.14312	2.4614
9.04739	2.8061
8.95363	3.0339
8.8618	2.8096
8.77183	2.2873
8.68368	1.7292
8.59727	1.2781
8.51257	1.1536
8.42951	1.3423
8.34807	1.769
8.26819	2.3286
8.18981	2.8923
8.11292	3.4036
8.03745	3.8345
7.96337	4.1709
7.89064	4.4739
7.81924	4.7341
7.74911	4.9553
7.68023	5.144
7.61256	5.355
7.54608	5.5991
7.48074	5.7883
7.41653	5.9558
7.35341	6.1206
7.29136	6.2832
7.23034	6.4695
7.17033	6.6015
7.11132	6.72
7.05327	6.8225
6.99616	7.0019
6.93996	7.1731
6.88467	7.3345
6.83024	7.5078
6.77667	7.7102
6.72393	7.8899
6.67201	8.0356
6.62089	8.1631
6.57054	8.2219
6.52095	8.2424
6.4721	8.1067
6.42398	7.8718
6.37657	7.6643
6.32986	7.426
6.28382	7.1914
6.23845	6.9819
6.19373	6.7812
6.14965	6.6274
6.10619	6.5718
6.06334	6.6243
6.02109	6.7444
5.97942	6.9023
5.93832	7.0002
5.89778	7.0766
5.8578	7.1509
5.81835	7.1985
5.77943	7.3152
5.74103	7.4079
5.70314	7.4761
5.66574	7.572
5.62883	7.7229
5.5924	7.8598
5.55644	7.9363
5.52093	8.0425
5.48588	8.136
5.45127	8.3003
5.41709	8.5473
5.38334	8.8891
5.35	9.2666
5.31708	9.6465
5.28456	9.938
5.25243	10.0871
5.2207	10.1294
5.18934	10.1706
5.15836	10.188
5.12775	10.1921
5.09749	10.1885
5.0676	10.1726
5.03805	10.1694
5.00884	10.1775
4.97998	10.2307
4.95144	10.2868
4.92322	10.2766
4.89533	10.26
4.86775	10.3059
4.84048	10.3965
4.81351	10.5197
4.78684	10.6679
4.76047	10.8405
4.73439	11.0417
4.70859	11.227
4.68306	11.3977
4.65782	11.5808
4.63284	11.7841
4.60814	11.9753
4.58369	12.164
4.5595	12.334
4.53557	12.4629
4.51188	12.5329
4.48845	12.5918
4.46525	12.6299
4.44229	12.6482
4.41957	12.6797
4.39708	12.6948
4.37481	12.7019
4.35277	12.7185
4.33096	12.729
4.30935	12.7343
4.28797	12.7378
4.26679	12.7465
4.24583	12.7729
4.22506	12.7976
4.2045	12.8156
4.18414	12.809
4.16398	12.8093
4.14401	12.8108
4.12423	12.8249
4.10464	12.8369
4.08523	12.854
4.066	12.8559
4.04696	12.8606
4.02809	12.8706
4.0094	12.8459
3.99088	12.7988
3.97253	12.7819
3.95435	12.821
3.93634	12.8696
3.91848	12.8864
3.90079	12.8786
3.88326	12.865
3.86589	12.8674
3.84867	12.8525
3.8316	12.8552
3.81468	12.8391
3.79791	12.8176
3.78129	12.8203
3.76482	12.8054
3.74848	12.7832
3.73229	12.7551
3.71624	12.7358
3.70032	12.7097
3.68454	12.6726
3.6689	12.6469
3.65338	12.6111
3.638	12.6069
3.62275	12.5754
3.60762	12.5498
3.59262	12.5168
3.57775	12.4516
3.56299	12.4179
3.54836	12.3601
3.53385	12.2588
3.51945	12.0678
3.50517	11.7668
3.49101	11.8403
3.47696	11.8701
3.46303	11.8882
3.4492	11.7778
3.43549	11.6184
3.42188	11.2856
3.40838	11.2907
3.39499	11.4904
3.38171	11.5022
3.36852	11.5554
3.35544	11.6377
3.34246	11.6631
3.32958	11.6342
3.3168	11.5849
3.30411	11.5134
3.29153	11.4384
3.27903	11.3401
3.26664	11.2588
3.25433	11.1621
3.24212	11.08
3.23	10.9931
3.21797	10.9387
3.20603	10.9026
3.19418	10.8857
3.18241	10.8467
3.17074	10.7966
3.15914	10.7275
3.14763	10.6391
3.13621	10.5605
3.12487	10.4704
3.11361	10.4038
3.10243	10.3227
3.09133	10.2905
3.0803	10.2624
3.06936	10.2116
3.0585	10.1655
3.04771	10.1052
3.037	10.0627
3.02636	10.0051
3.0158	9.9468
3.00531	9.8979
2.99489	9.8581
2.98454	9.8418
2.97427	9.7978
2.96407	9.7383
2.95393	9.7016
2.94387	9.6706
2.93387	9.6386
2.92394	9.6118
2.91408	9.5813
2.90429	9.5986
2.89456	9.5935
2.88489	9.5835
2.87529	9.5549
2.86576	9.5473
2.85628	9.5293
2.84687	9.4865
2.83752	9.4275
2.82823	9.3418
2.81901	9.2756
2.80984	9.2185
2.80073	9.1509
2.79168	9.0583
2.78269	8.9355
2.77376	8.8921
2.76488	8.7341
2.75606	8.3982
2.7473	7.7363
2.73859	6.8388
2.72994	6.2878
2.72134	6.3581
2.7128	6.5002
2.70431	5.0388
2.69587	4.1902
2.68748	5.4741
2.67915	10.4909
2.67087	12.3466
2.66264	12.7658
2.65446	12.79
2.64633	12.6443
2.63825	12.6316
2.63021	12.6767
2.62223	12.8042
2.6143	12.8596
2.60641	12.8391
2.59857	12.874
2.59078	12.8723
2.58304	12.8049
2.57534	12.8112
2.56768	12.7788
2.56008	12.7597
2.55251	12.8198
2.54499	12.8913
2.53752	12.9524
2.53009	12.9631
2.5227	12.9265
2.51536	12.9204
2.50806	12.8745
2.5008	12.8813
2.49358	12.9067
2.4864	12.904
2.47927	12.9033
2.47218	12.8471
2.46512	12.8235
2.45811	12.7685
2.45114	12.698
2.4442	12.6262
2.43731	12.6367
2.43045	12.7063
2.42363	12.8044
2.41685	12.812
2.41011	12.7207
2.40341	12.6631
2.39674	12.5781
2.39011	12.3703
2.38352	12.125
2.37696	12.1538
2.37044	12.3835
2.36395	12.559
2.35751	12.6596
2.35109	12.676
2.34471	12.5791
2.33836	12.3891
2.33205	11.9785
2.32578	11.7524
2.31953	11.8452
2.31332	12.0947
2.30714	12.4043
2.301	12.6899
2.29489	12.8896
2.28881	13.1381
2.28276	13.2885
2.27675	13.4607
2.27076	13.5473
2.26481	13.5781
2.25889	13.5586
2.253	13.4262
2.24714	13.2514
2.24131	13.4282
2.23551	13.7119
2.22974	13.8686
2.224	13.9555
2.21829	13.9682
2.21261	13.979
2.20696	13.9804
2.20134	13.9821
2.19574	14.0459
2.19018	14.0293
2.18464	14.0427
2.17913	14.0376
2.17365	14.0212
2.16819	14.059
2.16277	14.0097
2.15737	14.06
2.15199	13.9912
2.14665	14.0036
2.14133	13.9873
2.13603	14.0073
2.13077	14
2.12552	14.0097
2.12031	13.9841
2.11512	14.0068
2.10995	14.0012
2.10481	13.9914
2.0997	13.9836
2.09461	14.0297
2.08954	14.0451
2.0845	14.0429
2.07948	14.0232
