Name: Nontronite Na0.33Fe2+3(Si,Al)4O10.3H2O
Type: Mineral
Class: Silicates
Subclass: Phyllosilicates (Sheet Silicates); (Smectite Group)
Particle Size: Fine  (0-2  Micrometers)
Sample No.: nontron.1
Owner: JHU
Wavelength Range: IR
Origin: Holen Hagen, Germany via the Hunt and Salisbury Collection
Description: Brown, earthy clay. Less than 2 �m fraction is nontronite, plus a faint
Measurement: Bidirectional reflectance
X Units: Wavelength (micrometers)
Y Units: Reflectance (percent)
wavelength	value
25.0442	1.959
24.3388	2.3052
23.6719	2.3525
23.0407	2.4016
22.4422	2.4192
21.8741	2.3635
21.334	2.2642
20.8199	2.1628
20.33	2.6892
19.8627	2.6658
19.4163	2.6299
18.9896	2.6152
18.5812	2.5691
18.19	2.2773
17.815	1.791
17.4551	1.2751
17.1094	0.9241
16.7772	0.7747
16.4576	0.6916
16.15	0.6628
15.8537	0.7561
15.568	0.8081
15.2925	0.8323
15.0265	0.8706
14.7697	0.8816
14.5214	0.8638
14.2814	0.9292
14.0492	1.0037
13.8244	1.0876
13.6067	1.1316
13.3957	1.1165
13.1912	1.1421
12.9929	1.1519
12.8004	1.1208
12.6135	1.1064
12.432	1.1462
12.2557	1.1064
12.0843	1.0405
11.9176	1.1003
11.7555	1.103
11.5977	1.1335
11.444	1.1313
11.2944	1.1626
11.1487	1.2258
11.0067	1.2788
10.8682	1.2808
10.7332	1.3259
10.6015	1.3386
10.473	1.386
10.3476	1.4319
10.2251	1.4958
10.1056	1.5701
9.98873	1.6721
9.87458	1.8061
9.763	1.9199
9.65392	2.071
9.54724	2.1445
9.44291	2.2019
9.34082	2.1721
9.24091	2.0105
9.14312	1.8413
9.04739	1.708
8.95363	1.6738
8.8618	1.6982
8.77183	1.6533
8.68368	1.4507
8.59727	1.0935
8.51257	0.729
8.42951	0.4453
8.34807	0.3193
8.26819	0.3428
8.18981	0.428
8.11292	0.6062
8.03745	0.8459
7.96337	1.0818
7.89064	1.313
7.81924	1.5288
7.74911	1.7424
7.68023	1.9377
7.61256	2.0913
7.54608	2.238
7.48074	2.3623
7.41653	2.46
7.35341	2.5554
7.29136	2.6406
7.23034	2.7244
7.17033	2.8223
7.11132	2.9053
7.05327	2.9858
6.99616	3.0906
6.93996	3.2004
6.88467	3.3257
6.83024	3.4258
6.77667	3.5107
6.72393	3.6157
6.67201	3.6702
6.62089	3.6902
6.57054	3.6621
6.52095	3.6306
6.4721	3.5503
6.42398	3.386
6.37657	3.1577
6.32986	2.7495
6.28382	2.1482
6.23845	1.4636
6.19373	1.0886
6.14965	0.9534
6.10619	0.9597
6.06334	1.0312
6.02109	1.1799
5.97942	1.4375
5.93832	1.8457
5.89778	2.3064
5.8578	2.7827
5.81835	3.1316
5.77943	3.4307
5.74103	3.6448
5.70314	3.8035
5.66574	3.874
5.62883	3.8906
5.5924	3.8975
5.55644	3.8743
5.52093	3.8777
5.48588	3.9258
5.45127	4.0007
5.41709	4.0757
5.38334	4.1677
5.35	4.2637
5.31708	4.3977
5.28456	4.521
5.25243	4.6296
5.2207	4.7388
5.18934	4.8437
5.15836	4.9565
5.12775	5.0991
5.09749	5.2661
5.0676	5.4282
5.03805	5.6015
5.00884	5.7475
4.97998	5.876
4.95144	5.9934
4.92322	6.084
4.89533	6.198
4.86775	6.2898
4.84048	6.3635
4.81351	6.4363
4.78684	6.4892
4.76047	6.5405
4.73439	6.5847
4.70859	6.6164
4.68306	6.6374
4.65782	6.6687
4.63284	6.7031
4.60814	6.728
4.58369	6.7449
4.5595	6.7678
4.53557	6.7844
4.51188	6.7993
4.48845	6.8379
4.46525	6.8691
4.44229	6.9001
4.41957	6.9507
4.39708	6.9931
4.37481	7.0517
4.35277	7.0981
4.33096	7.1401
4.30935	7.1977
4.28797	7.2573
4.26679	7.3161
4.24583	7.3911
4.22506	7.4675
4.2045	7.5354
4.18414	7.5969
4.16398	7.6701
4.14401	7.7361
4.12423	7.7929
4.10464	7.8606
4.08523	7.9306
4.066	7.9892
4.04696	8.0469
4.02809	8.104
4.0094	8.1365
3.99088	8.1772
3.97253	8.1848
3.95435	8.1904
3.93634	8.1892
3.91848	8.1667
3.90079	8.1465
3.88326	8.1001
3.86589	8.0508
3.84867	7.9927
3.8316	7.9094
3.81468	7.8264
3.79791	7.7385
3.78129	7.6465
3.76482	7.5444
3.74848	7.4363
3.73229	7.3232
3.71624	7.1997
3.70032	7.0574
3.68454	6.9092
3.6689	6.7478
3.65338	6.6001
3.638	6.438
3.62275	6.2795
3.60762	6.1487
3.59262	6.0041
3.57775	5.8559
3.56299	5.6943
3.54836	5.5227
3.53385	5.3486
3.51945	5.1416
3.50517	4.8845
3.49101	4.7751
3.47696	4.6514
3.46303	4.499
3.4492	4.322
3.43549	4.1235
3.42188	3.8743
3.40838	3.7024
3.39499	3.6372
3.38171	3.5107
3.36852	3.3972
3.35544	3.272
3.34246	3.1301
3.32958	2.9875
3.3168	2.8415
3.30411	2.698
3.29153	2.5786
3.27903	2.4446
3.26664	2.3149
3.25433	2.1956
3.24212	2.0789
3.23	1.9656
3.21797	1.8628
3.20603	1.7795
3.19418	1.6799
3.18241	1.6208
3.17074	1.5373
3.15914	1.4824
3.14763	1.4292
3.13621	1.3706
3.12487	1.3215
3.11361	1.2793
3.10243	1.2624
3.09133	1.2156
3.0803	1.2141
3.06936	1.2222
3.0585	1.2048
3.04771	1.2251
3.037	1.2041
3.02636	1.186
3.0158	1.1475
3.00531	1.1467
2.99489	1.1128
2.98454	1.0994
2.97427	1.0803
2.96407	1.0615
2.95393	1.0698
2.94387	1.041
2.93387	1.0652
2.92394	1.0559
2.91408	1.0547
2.90429	1.0593
2.89456	1.0415
2.88489	1.0613
2.87529	1.0557
2.86576	1.0522
2.85628	1.0569
2.84687	1.0361
2.83752	0.9998
2.82823	0.9143
2.81901	0.8332
2.80984	0.74
2.80073	0.6868
2.79168	0.656
2.78269	0.6714
2.77376	0.7161
2.76488	0.7368
2.75606	0.7549
2.7473	0.8286
2.73859	0.9204
2.72994	1.074
2.72134	1.301
2.7128	1.7673
2.70431	2.5161
2.69587	3.3613
2.68748	4.2219
2.67915	4.9324
2.67087	5.469
2.66264	6.0744
2.65446	6.404
2.64633	6.7065
2.63825	6.9485
2.63021	7.1025
2.62223	7.2971
2.6143	7.4365
2.60641	7.5202
2.59857	7.6753
2.59078	7.7781
2.58304	7.8303
2.57534	7.9131
2.56768	8.0183
2.56008	8.0617
2.55251	8.091
2.54499	8.1291
2.53752	8.1907
2.53009	8.2043
2.5227	8.2615
2.51536	8.2517
2.50806	8.3157
2.5008	8.3838
2.49358	8.438
2.4864	8.6123
2.47927	8.7702
2.47218	8.9043
2.46512	8.9494
2.45811	9.0669
2.45114	9.176
2.4442	9.185
2.43731	9.2412
2.43045	9.2981
2.42363	9.2986
2.41685	9.2634
2.41011	9.2121
2.40341	9.175
2.39674	9.2451
2.39011	9.4336
2.38352	9.6692
2.37696	9.8825
2.37044	10.0805
2.36395	10.2146
2.35751	10.3254
2.35109	10.5085
2.34471	10.6474
2.33836	10.7173
2.33205	10.7395
2.32578	10.7409
2.31953	10.7048
2.31332	10.5393
2.30714	10.2058
2.301	9.7131
2.29489	9.2666
2.28881	8.9631
2.28276	9.0725
2.27675	9.4717
2.27076	10.0327
2.26481	10.5468
2.25889	10.8869
2.253	11.0466
2.24714	11.0932
2.24131	11.0444
2.23551	11.0161
2.22974	11.0049
2.224	11.0852
2.21829	11.2871
2.21261	11.3532
2.20696	11.4904
2.20134	11.5591
2.19574	11.5937
2.19018	11.6958
2.18464	11.6543
2.17913	11.728
2.17365	11.8615
2.16819	11.916
2.16277	11.9712
2.15737	12.0149
2.15199	11.9985
2.14665	11.9804
2.14133	11.9963
2.13603	12.0378
2.13077	12.0022
2.12552	12.0239
2.12031	12.0219
2.11512	12.0459
2.10995	12.0234
2.10481	12.0742
2.0997	11.9873
2.09461	12.0351
2.08954	12.0573
2.0845	12.04
2.07948	12.061
