Name: Rutile TiO2
Type: Mineral
Class: Oxides
Subclass: (Rutile Group)
Particle Size: Fine (0-74  Micrometers)
Sample No.: rutile.1
Owner: JHU
Wavelength Range: IR
Origin: White Plains, Alexander County, North Carolina vie the
Description: The sample was composed of three small crystals with a
Measurement: Bidirectional reflectance
X Units: Wavelength (micrometers)
Y Units: Reflectance (percent)
wavelength	value
25.0442	2.5859
24.3388	2.7578
23.6719	2.6455
23.0407	2.3369
22.4422	1.7747
21.8741	1.7581
21.334	2.0996
20.8199	2.4863
20.33	2.7563
19.8627	3.0029
19.4163	3.0791
18.9896	3.0605
18.5812	2.9553
18.19	2.8809
17.815	2.7788
17.4551	2.7983
17.1094	2.7568
16.7772	2.8005
16.4576	2.8132
16.15	2.8171
15.8537	2.8562
15.568	2.8667
15.2925	2.8828
15.0265	2.8345
14.7697	2.8552
14.5214	2.8638
14.2814	2.8572
14.0492	2.8735
13.8244	2.8955
13.6067	2.8874
13.3957	2.8254
13.1912	2.7832
12.9929	2.6633
12.8004	2.5325
12.6135	2.3728
12.432	2.2192
12.2557	1.9958
12.0843	1.741
11.9176	1.3967
11.7555	1.0032
11.5977	0.6848
11.444	0.4353
11.2944	0.3223
11.1487	0.2844
11.0067	0.3132
10.8682	0.4109
10.7332	0.5283
10.6015	0.6836
10.473	0.7998
10.3476	0.9702
10.2251	1.1648
10.1056	1.3203
9.98873	1.5007
9.87458	1.6362
9.763	1.7715
9.65392	1.8916
9.54724	1.9932
9.44291	2.042
9.34082	2.2019
9.24091	2.4221
9.14312	2.5854
9.04739	2.6558
8.95363	2.7258
8.8618	2.8047
8.77183	2.9016
8.68368	2.9827
8.59727	3.0547
8.51257	3.1455
8.42951	3.2226
8.34807	3.3079
8.26819	3.3992
8.18981	3.5124
8.11292	3.5911
8.03745	3.6829
7.96337	3.7832
7.89064	3.9329
7.81924	4.1609
7.74911	4.4004
7.68023	4.6721
7.61256	4.9446
7.54608	5.1885
7.48074	5.3884
7.41653	5.574
7.35341	5.741
7.29136	5.8974
7.23034	6.0522
7.17033	6.2077
7.11132	6.3618
7.05327	6.5076
6.99616	6.6609
6.93996	6.8042
6.88467	6.9736
6.83024	7.1125
6.77667	7.2651
6.72393	7.3962
6.67201	7.5085
6.62089	7.6582
6.57054	7.7473
6.52095	7.883
6.4721	8.0105
6.42398	8.1213
6.37657	8.271
6.32986	8.3891
6.28382	8.4997
6.23845	8.5984
6.19373	8.7026
6.14965	8.8281
6.10619	8.9443
6.06334	9.1059
6.02109	9.2754
5.97942	9.4668
5.93832	9.6184
5.89778	9.8042
5.8578	10.0024
5.81835	10.1352
5.77943	10.3039
5.74103	10.4411
5.70314	10.5901
5.66574	10.7292
5.62883	10.8532
5.5924	10.9704
5.55644	11.0666
5.52093	11.1618
5.48588	11.2378
5.45127	11.2998
5.41709	11.3633
5.38334	11.4426
5.35	11.5139
5.31708	11.5927
5.28456	11.6694
5.25243	11.7248
5.2207	11.7973
5.18934	11.8298
5.15836	11.8759
5.12775	11.9211
5.09749	11.9631
5.0676	11.9963
5.03805	12.0481
5.00884	12.0918
4.97998	12.1511
4.95144	12.2036
4.92322	12.2419
4.89533	12.2707
4.86775	12.3025
4.84048	12.3269
4.81351	12.3401
4.78684	12.3247
4.76047	12.2121
4.73439	12.0761
4.70859	12.0886
4.68306	12.2243
4.65782	12.3799
4.63284	12.5019
4.60814	12.5554
4.58369	12.5954
4.5595	12.625
4.53557	12.6369
4.51188	12.6486
4.48845	12.6819
4.46525	12.6914
4.44229	12.7287
4.41957	12.7392
4.39708	12.7453
4.37481	12.7453
4.35277	12.7297
4.33096	12.7143
4.30935	12.7058
4.28797	12.7046
4.26679	12.7278
4.24583	12.7444
4.22506	12.7754
4.2045	12.7739
4.18414	12.7805
4.16398	12.7849
4.14401	12.7817
4.12423	12.8012
4.10464	12.8017
4.08523	12.8061
4.066	12.8164
4.04696	12.8276
4.02809	12.8427
4.0094	12.8198
3.99088	12.8132
3.97253	12.7895
3.95435	12.7675
3.93634	12.7685
3.91848	12.7514
3.90079	12.7431
3.88326	12.7082
3.86589	12.695
3.84867	12.667
3.8316	12.655
3.81468	12.6245
3.79791	12.5932
3.78129	12.5837
3.76482	12.5598
3.74848	12.5302
3.73229	12.4887
3.71624	12.4658
3.70032	12.4375
3.68454	12.3994
3.6689	12.3659
3.65338	12.3342
3.638	12.2956
3.62275	12.2644
3.60762	12.228
3.59262	12.188
3.57775	12.124
3.56299	12.0708
3.54836	12.0046
3.53385	11.9236
3.51945	11.769
3.50517	11.4487
3.49101	11.4804
3.47696	11.5061
3.46303	11.459
3.4492	11.33
3.43549	11.1628
3.42188	10.8457
3.40838	10.843
3.39499	11.0432
3.38171	11.0376
3.36852	11.0588
3.35544	11.1316
3.34246	11.1277
3.32958	11.0893
3.3168	11.0239
3.30411	10.9721
3.29153	10.9087
3.27903	10.8571
3.26664	10.7805
3.25433	10.717
3.24212	10.6723
3.23	10.6494
3.21797	10.6086
3.20603	10.5818
3.19418	10.5395
3.18241	10.4878
3.17074	10.4416
3.15914	10.3762
3.14763	10.3193
3.13621	10.2473
3.12487	10.1718
3.11361	10.0703
3.10243	9.8735
3.09133	9.5217
3.0803	8.9348
3.06936	7.958
3.0585	6.3555
3.04771	5.2995
3.037	5.6914
3.02636	6.4292
3.0158	7.4326
3.00531	7.8264
2.99489	8.7466
2.98454	9.3979
2.97427	9.6855
2.96407	9.8008
2.95393	9.9048
2.94387	10.03
2.93387	10.1147
2.92394	10.206
2.91408	10.2954
2.90429	10.4648
2.89456	10.615
2.88489	10.7509
2.87529	10.875
2.86576	10.9829
2.85628	11.1198
2.84687	11.2158
2.83752	11.3178
2.82823	11.4248
2.81901	11.4963
2.80984	11.6135
2.80073	11.6831
2.79168	11.759
2.78269	11.801
2.77376	11.8703
2.76488	11.9135
2.75606	11.9892
2.7473	12.1438
2.73859	12.2378
2.72994	12.3559
2.72134	12.4331
2.7128	12.5561
2.70431	12.6342
2.69587	12.7065
2.68748	12.8047
2.67915	12.8715
2.67087	12.8872
2.66264	12.9961
2.65446	13.0522
2.64633	13.0796
2.63825	13.1084
2.63021	13.1015
2.62223	13.1533
2.6143	13.1858
2.60641	13.1704
2.59857	13.2065
2.59078	13.2563
2.58304	13.2505
2.57534	13.2793
2.56768	13.2722
2.56008	13.2883
2.55251	13.3086
2.54499	13.2915
2.53752	13.2939
2.53009	13.2434
2.5227	13.1572
2.51536	13.145
2.50806	13.1118
2.5008	13.1164
2.49358	13.1406
2.4864	13.125
2.47927	13.1452
2.47218	13.145
2.46512	13.1538
2.45811	13.2092
2.45114	13.2649
2.4442	13.2685
2.43731	13.3242
2.43045	13.4018
2.42363	13.3911
2.41685	13.4472
2.41011	13.4765
2.40341	13.466
2.39674	13.4438
2.39011	13.4631
2.38352	13.521
2.37696	13.5217
2.37044	13.5288
2.36395	13.5576
2.35751	13.5571
2.35109	13.5556
2.34471	13.5639
2.33836	13.5434
2.33205	13.5278
2.32578	13.5234
2.31953	13.4668
2.31332	13.3947
2.30714	13.2317
2.301	13.1252
2.29489	13.205
2.28881	13.372
2.28276	13.4358
2.27675	13.508
2.27076	13.5383
2.26481	13.6103
2.25889	13.6572
2.253	13.6992
2.24714	13.7031
2.24131	13.7014
2.23551	13.7197
2.22974	13.7168
2.224	13.6789
2.21829	13.7053
2.21261	13.7756
2.20696	13.7463
2.20134	13.7258
2.19574	13.7441
2.19018	13.7749
2.18464	13.7651
2.17913	13.7988
2.17365	13.7915
2.16819	13.7905
2.16277	13.8198
2.15737	13.792
2.15199	13.7451
2.14665	13.7754
2.14133	13.7822
2.13603	13.8134
2.13077	13.8193
2.12552	13.792
2.12031	13.7944
2.11512	13.7797
2.10995	13.7744
2.10481	13.747
2.0997	13.7563
2.09461	13.8559
2.08954	13.8852
2.0845	13.8134
2.07948	13.7988
