Name: Andalusite Al2SiO5
Type: Mineral
Class: Silicates
Subclass: Nesosilicates  (Isolated tetrahedra) (Al2SiO5 Group)
Particle Size: Fine (0 - 75 Micrometers)
Owner: JHU
Wavelength Range: IR
Origin: Sample from St. Theresa, Espirito Santo, Brazil via Smithsonian
Description: Sample was composed of two crystals, one clear and one
Measurement: Bidirectional Reflectance
X Units: Wavelength (micrometers)
Y Units: Reflectance (percent)
wavelength	value
25.044	3.4487
24.339	3.522
23.672	4.3818
23.041	5.0659
22.442	5.311
21.874	6.2283
21.334	3.8765
20.82	3.0552
20.33	3.3987
19.863	3.6987
19.416	2.7075
18.99	3.2092
18.581	3.7759
18.19	3.917
17.815	3.5759
17.455	3.1809
17.109	3.2705
16.777	3.5461
16.458	3.7131
16.15	3.9568
15.854	4.1531
15.568	4.3528
15.292	4.563
15.027	4.3911
14.77	4.8318
14.521	5.2622
14.281	5.2168
14.049	4.739
13.824	4.2493
13.607	3.8701
13.396	3.467
13.191	2.7998
12.993	2.1028
12.8	1.4023
12.614	1.2051
12.432	1.4016
12.256	1.585
12.084	1.7759
11.918	1.8396
11.755	1.9797
11.598	2.1743
11.444	2.3684
11.294	2.7563
11.149	3.0664
11.007	3.333
10.868	2.906
10.733	4.0154
10.602	4.989
10.473	5.1597
10.348	4.104
10.225	5.8247
10.106	6.219
9.989	6.3398
9.875	6.4026
9.763	6.2246
9.654	6.0124
9.547	5.9363
9.443	6.0683
9.341	6.331
9.241	6.3838
9.143	5.8579
9.047	4.885
8.954	4.0881
8.862	3.3608
8.772	2.501
8.684	1.5998
8.597	0.9114
8.513	0.6108
8.43	0.6226
8.348	0.7532
8.268	0.9028
8.19	1.0681
8.113	1.2683
8.037	1.4631
7.963	1.5798
7.891	1.6323
7.819	1.7236
7.749	1.9453
7.68	2.1113
7.613	2.176
7.546	2.3909
7.481	2.604
7.417	2.8039
7.353	3.2209
7.291	3.6667
7.23	4.0959
7.17	4.436
7.111	4.6474
7.053	4.8523
6.996	4.9939
6.94	4.8713
6.885	4.706
6.83	4.8694
6.777	4.9846
6.724	4.8774
6.672	4.6072
6.621	4.498
6.571	4.6208
6.521	4.7104
6.472	4.779
6.424	5.0932
6.377	5.3415
6.33	5.3743
6.284	5.6326
6.238	5.761
6.194	6.0576
6.15	6.3291
6.106	6.5705
6.063	6.9453
6.021	6.8613
5.979	6.584
5.938	6.7654
5.898	7.0676
5.858	7.3027
5.818	7.5366
5.779	7.8762
5.741	7.8708
5.703	7.9509
5.666	7.9001
5.629	7.5525
5.592	6.6494
5.556	5.584
5.521	4.9785
5.486	5.1455
5.451	5.3765
5.417	4.5203
5.383	4.5051
5.35	5.0327
5.317	5.499
5.285	5.3266
5.252	5.238
5.221	5.7634
5.189	6.7991
5.158	7.0491
5.128	6.2322
5.097	6.2322
5.068	6.6955
5.038	7.303
5.009	7.0962
4.98	6.0752
4.951	5.4375
4.923	5.8999
4.895	7.0515
4.868	8.2063
4.84	8.9599
4.814	9.7273
4.787	10.4883
4.76	10.7754
4.734	10.7541
4.709	10.8655
4.683	11.2365
4.658	11.6289
4.633	11.8803
4.608	12.0324
4.584	12.0459
4.56	12.0896
4.536	12.164
4.512	12.2724
4.488	12.384
4.465	12.4653
4.442	12.5053
4.42	12.5737
4.397	12.6167
4.375	12.6733
4.353	12.7065
4.331	12.7234
4.309	12.7497
4.288	12.7746
4.267	12.8139
4.246	12.8567
4.225	12.8818
4.205	12.9084
4.184	12.9265
4.164	12.937
4.144	12.9348
4.124	12.9218
4.105	12.9572
4.085	12.9853
4.066	12.9924
4.047	12.9987
4.028	13.0224
4.009	13.0168
3.991	13.0337
3.973	13.0388
3.954	13.0581
3.936	13.082
3.918	13.1003
3.901	13.1047
3.883	13.0932
3.866	13.0754
3.849	13.0332
3.832	13.0088
3.815	13.0346
3.798	13.0842
3.781	13.1132
3.765	13.133
3.748	13.1208
3.732	13.102
3.716	13.0901
3.7	13.0544
3.685	13.0129
3.669	12.976
3.653	12.9145
3.638	12.864
3.623	12.7715
3.608	12.7461
3.593	12.7519
3.578	12.7768
3.563	12.7827
3.548	12.759
3.534	12.7334
3.519	12.688
3.505	12.4558
3.491	12.5149
3.477	12.5661
3.463	12.603
3.449	12.5276
3.435	12.4218
3.422	12.1425
3.408	12.1435
3.395	12.3669
3.382	12.3918
3.369	12.4153
3.355	12.5483
3.342	12.6132
3.33	12.6184
3.317	12.6113
3.304	12.6025
3.292	12.582
3.279	12.549
3.267	12.5295
3.254	12.4953
3.242	12.4953
3.23	12.469
3.218	12.4277
3.206	12.3911
3.194	12.3676
3.182	12.3742
3.171	12.3303
3.159	12.3274
3.148	12.2849
3.136	12.2466
3.125	12.2085
3.114	12.1792
3.102	12.1567
3.091	12.0869
3.08	12.0058
3.069	11.935
3.058	11.8195
3.048	11.8706
3.037	11.9392
3.026	11.9729
3.016	11.9563
3.005	11.9326
2.995	11.9397
2.985	11.9353
2.974	11.8945
2.964	11.8728
2.954	11.8576
2.944	11.8164
2.934	11.6911
2.924	11.3481
2.914	10.7346
2.904	10.6047
2.895	10.9033
2.885	10.7429
2.875	11.508
2.866	11.7505
2.856	11.8435
2.847	11.3022
2.838	10.5905
2.828	11.6919
2.819	12.0329
2.81	12.081
2.801	12.132
2.792	12.1147
2.783	11.6921
2.774	11.9966
2.765	11.9057
2.756	11.9824
2.747	12.1469
2.739	11.7417
2.73	12.2519
2.721	12.3884
2.713	12.3735
2.704	12.1279
2.696	12.7414
2.687	13.0761
2.679	13.2292
2.671	13.2837
2.663	13.3676
2.654	13.3816
2.646	13.4082
2.638	13.4116
2.63	13.3681
2.622	13.4033
2.614	13.3962
2.606	13.3725
2.599	13.3916
2.591	13.3974
2.583	13.3584
2.575	13.4135
2.568	13.3935
2.56	13.4035
2.553	13.3745
2.545	13.3523
2.538	13.3703
2.53	13.3369
2.523	13.3342
2.515	13.3379
2.508	13.3486
2.501	13.3296
2.494	13.2827
2.486	13.2663
2.479	13.3049
2.472	13.257
2.465	13.2309
2.458	13.2309
2.451	13.2365
2.444	13.1679
2.437	13.2046
2.43	13.185
2.424	13.1899
2.417	13.1909
2.41	13.2002
2.403	13.1596
2.397	13.1303
2.39	13.1071
2.384	13.1352
2.377	13.0986
2.37	13.1023
2.364	13.0835
2.358	13.0615
2.351	13.0693
2.345	13.0786
2.338	13.0822
2.332	13.0835
2.326	13.0647
2.32	13.0796
2.313	13.0837
2.307	13.028
2.301	13.0639
2.295	13.0359
2.289	13.0151
2.283	13.0136
2.277	13.0195
2.271	12.9922
2.265	13.0075
2.259	13.0051
2.253	12.9702
2.247	12.9668
2.241	12.9448
2.236	13.0012
2.23	12.9502
2.224	12.9221
2.218	12.969
2.213	12.937
2.207	12.9297
2.201	12.959
2.196	12.9487
2.19	13.0246
2.185	12.9633
2.179	12.9475
2.174	13.0244
2.168	13.0617
2.163	13.05
2.157	13.0424
2.152	12.9543
2.147	12.9885
2.141	13.0507
2.136	13.0576
2.131	13.0305
2.126	13.0307
2.12	13.1018
2.115	13.0959
2.11	13.05
2.105	13.081
2.1	13.0322
2.095	13.1172
2.09	13.1184
2.085	13.0832
2.079	13.0783
