Name: Lizardite Mg3Si2O5(OH)4
Type: Mineral
Class: Silicates
Subclass: Phyllosilicates (Sheet Silicates); (Serpentine/Kaoline Group)
Particle Size: 0-60 micrometers.  (Packed powder simulates coarse.)
Sample No.: lizard.1
Owner: JHU
Wavelength Range: IR
Origin: Austria via the Smithsonian (sample no. NMNH R4687),
Description: Sample was a small amount of fine white powder.  Only
Measurement: Bidirectional reflectance
X Units: Wavelength (micrometers)
Y Units: Reflectance (percent)
wavelength	value
25.0442	4.3804
24.3388	4.6753
23.6719	5.2475
23.0407	6.1411
22.4422	7.0283
21.8741	6.7341
21.334	6.9048
20.8199	6.72
20.33	6.3782
19.8627	5.6531
19.4163	3.9165
18.9896	1.8479
18.5812	1.8293
18.19	2.3125
17.815	2.6516
17.4551	2.8213
17.1094	2.9331
16.7772	2.8796
16.4576	3.6658
16.15	4.3862
15.8537	4.7385
15.568	4.8545
15.2925	5.0449
15.0265	4.9897
14.7697	3.2309
14.5214	1.7761
14.2814	0.9614
14.0492	0.8113
13.8244	0.835
13.6067	0.9097
13.3957	1.1548
13.1912	1.4443
12.9929	1.7048
12.8004	1.9629
12.6135	2.2012
12.432	2.2895
12.2557	2.363
12.0843	2.6658
11.9176	2.9343
11.7555	3.0801
11.5977	3.1875
11.444	3.2478
11.2944	3.3318
11.1487	3.2449
11.0067	2.9853
10.8682	2.9558
10.7332	3.2788
10.6015	3.6999
10.473	4.2551
10.3476	4.6648
10.2251	4.7458
10.1056	4.855
9.98873	4.9221
9.87458	4.9587
9.763	4.7353
9.65392	3.2226
9.54724	2.3953
9.44291	1.9185
9.34082	1.8176
9.24091	2.3447
9.14312	3.603
9.04739	4.5193
8.95363	3.3464
8.8618	1.5598
8.77183	0.6182
8.68368	0.5251
8.59727	0.6348
8.51257	0.7751
8.42951	0.9187
8.34807	1.0647
8.26819	1.2185
8.18981	1.418
8.11292	1.6018
8.03745	1.7666
7.96337	1.9431
7.89064	2.1411
7.81924	2.3091
7.74911	2.4465
7.68023	2.4819
7.61256	2.5693
7.54608	2.688
7.48074	2.8435
7.41653	3.0093
7.35341	3.167
7.29136	3.2815
7.23034	3.4072
7.17033	3.5098
7.11132	3.5803
7.05327	3.6963
6.99616	3.8486
6.93996	3.9346
6.88467	4.0337
6.83024	4.1106
6.77667	4.2475
6.72393	4.4548
6.67201	4.6318
6.62089	4.7536
6.57054	4.7107
6.52095	4.467
6.4721	4.1582
6.42398	4.0027
6.37657	4.0181
6.32986	3.9255
6.28382	3.7495
6.23845	3.5928
6.19373	3.5474
6.14965	3.5801
6.10619	3.6953
6.06334	3.855
6.02109	3.9324
5.97942	3.9675
5.93832	4.0837
5.89778	4.3791
5.8578	4.7117
5.81835	5.0002
5.77943	5.2319
5.74103	5.4509
5.70314	5.7148
5.66574	5.9558
5.62883	6.1328
5.5924	6.2414
5.55644	6.2412
5.52093	6.2654
5.48588	6.4453
5.45127	6.7705
5.41709	7.0246
5.38334	7.2312
5.35	7.5351
5.31708	7.988
5.28456	8.3594
5.25243	8.6816
5.2207	8.9416
5.18934	9.0725
5.15836	9.0561
5.12775	8.968
5.09749	8.928
5.0676	8.8081
5.03805	8.7805
5.00884	8.7436
4.97998	8.8723
4.95144	9.0693
4.92322	9.1784
4.89533	9.435
4.86775	9.6206
4.84048	9.5896
4.81351	9.5115
4.78684	9.6491
4.76047	10.0185
4.73439	10.2856
4.70859	10.4184
4.68306	10.4624
4.65782	10.4048
4.63284	10.427
4.60814	10.488
4.58369	10.6147
4.5595	10.7302
4.53557	10.8171
4.51188	10.8772
4.48845	10.9646
4.46525	10.9646
4.44229	10.9467
4.41957	10.9919
4.39708	11.0464
4.37481	11.0866
4.35277	11.1335
4.33096	11.1074
4.30935	11.0898
4.28797	11.0849
4.26679	11.1111
4.24583	11.1506
4.22506	11.1738
4.2045	11.1982
4.18414	11.2177
4.16398	11.2126
4.14401	11.2099
4.12423	11.2292
4.10464	11.2312
4.08523	11.2141
4.066	11.1792
4.04696	11.0967
4.02809	10.9914
4.0094	10.7988
3.99088	10.5696
3.97253	10.2776
3.95435	10.2163
3.93634	10.2495
3.91848	10.2793
3.90079	10.4016
3.88326	10.4287
3.86589	10.4516
3.84867	10.5967
3.8316	10.5937
3.81468	10.4128
3.79791	10.3366
3.78129	10.4392
3.76482	10.551
3.74848	10.6914
3.73229	10.7732
3.71624	10.7163
3.70032	10.6335
3.68454	10.667
3.6689	10.6347
3.65338	10.5798
3.638	10.5295
3.62275	10.4721
3.60762	10.3982
3.59262	10.3227
3.57775	10.2143
3.56299	10.0859
3.54836	9.8811
3.53385	9.6963
3.51945	9.2448
3.50517	8.5869
3.49101	8.3811
3.47696	8.3188
3.46303	8.3088
3.4492	8.1323
3.43549	7.9109
3.42188	7.5022
3.40838	7.3076
3.39499	7.6147
3.38171	7.6223
3.36852	7.6325
3.35544	7.8369
3.34246	7.917
3.32958	7.9458
3.3168	7.8489
3.30411	7.7209
3.29153	7.7815
3.27903	7.7825
3.26664	7.7422
3.25433	7.6819
3.24212	7.5696
3.23	7.4995
3.21797	7.5107
3.20603	7.4731
3.19418	7.3828
3.18241	7.2795
3.17074	7.157
3.15914	7.0354
3.14763	6.8899
3.13621	6.7512
3.12487	6.6555
3.11361	6.5898
3.10243	6.4663
3.09133	6.3764
3.0803	6.3069
3.06936	6.2195
3.0585	6.0796
3.04771	5.9636
3.037	5.8437
3.02636	5.7046
3.0158	5.5676
3.00531	5.3782
2.99489	5.1599
2.98454	4.866
2.97427	4.4495
2.96407	4.0532
2.95393	3.7866
2.94387	3.6435
2.93387	3.6218
2.92394	3.6311
2.91408	3.7204
2.90429	3.9311
2.89456	4.1589
2.88489	4.3489
2.87529	4.3765
2.86576	4.2497
2.85628	3.9219
2.84687	3.4267
2.83752	2.7764
2.82823	2.231
2.81901	1.9043
2.80984	1.978
2.80073	2.3826
2.79168	2.4817
2.78269	2.2754
2.77376	2.229
2.76488	3.0784
2.75606	2.8943
2.7473	1.8096
2.73859	1.2285
2.72994	1.0601
2.72134	0.8394
2.7128	0.6038
2.70431	0.7058
2.69587	2.7588
2.68748	6.8232
2.67915	8.6523
2.67087	9.697
2.66264	10.1499
2.65446	10.2278
2.64633	10.5776
2.63825	10.9502
2.63021	11.0002
2.62223	11.0044
2.6143	10.9446
2.60641	10.8679
2.59857	10.8603
2.59078	10.7165
2.58304	10.5847
2.57534	10.4902
2.56768	10.2866
2.56008	10.1152
2.55251	10.2844
2.54499	10.3398
2.53752	10.3635
2.53009	10.2837
2.5227	9.956
2.51536	9.636
2.50806	9.6396
2.5008	9.9504
2.49358	10.1408
2.4864	10.1867
2.47927	10.3647
2.47218	10.7253
2.46512	11.0024
2.45811	11.0683
2.45114	10.8169
2.4442	10.5058
2.43731	10.4902
2.43045	10.7534
2.42363	10.7876
2.41685	10.7866
2.41011	10.8545
2.40341	10.8137
2.39674	10.8186
2.39011	10.9458
2.38352	10.936
2.37696	10.8217
2.37044	11.0219
2.36395	11.4336
2.35751	11.4167
2.35109	11.2238
2.34471	10.4419
2.33836	9.6684
2.33205	9.438
2.32578	9.2129
2.31953	9.436
2.31332	9.9868
2.30714	10.3947
2.301	10.6836
2.29489	10.8257
2.28881	11.1167
2.28276	11.3257
2.27675	11.3442
2.27076	11.3418
2.26481	11.8027
2.25889	12.1616
2.253	12.1762
2.24714	12.2324
2.24131	12.3647
2.23551	12.6362
2.22974	12.9111
2.224	13.0405
2.21829	13.1176
2.21261	13.1855
2.20696	13.1792
2.20134	13.238
2.19574	13.2592
2.19018	13.3088
2.18464	13.2507
2.17913	13.2531
2.17365	13.2798
2.16819	13.3554
2.16277	13.3283
2.15737	13.2817
2.15199	13.1914
2.14665	13.0947
2.14133	13.0871
2.13603	13.0171
2.13077	13.0695
2.12552	13.0898
2.12031	13.0791
2.11512	13.0634
2.10995	13.0959
2.10481	13.1355
2.0997	13.2075
2.09461	13.218
2.08954	13.3589
2.0845	13.3938
2.07948	13.3881
