Name: Zoisite (var. tanzanite) Ca2Al3(SiO4)3(OH)
Type: Mineral
Class: Silicates
Particle Size: Solid (001 cleavage face)
Sample No.: zoisite.1
Owner: JHU
Wavelength Range: IR
Origin: Arusha, Tanzania via the Smithsonian (sample no. NMNH
Description: The sample consisted of five euhedral, violet-blue
Measurement: Bidirectional reflectance
X Units: Wavelength (micrometers)
Y Units: Reflectance (percent)
wavelength	value
25.0442	48.5487
24.3388	47.1327
23.6719	28.4277
23.0407	25.79
22.4422	39.3983
21.8741	39.1708
21.334	31.5487
20.8199	30.7743
20.33	25.7739
19.8627	20.4086
19.4163	26.0092
18.9896	22.0263
18.5812	21.0978
18.19	25.6183
17.815	29.3117
17.4551	42.9601
17.1094	51.2118
16.7772	33.8241
16.4576	26.3798
16.15	30.4252
15.8537	29.6474
15.568	27.0966
15.2925	37.1459
15.0265	41.1251
14.7697	42.3309
14.5214	31.7748
14.2814	21.017
14.0492	21.4409
13.8244	20.342
13.6067	16.788
13.3957	16.1479
13.1912	18.4738
12.9929	15.1626
12.8004	16.2529
12.6135	15.0278
12.432	16.4267
12.2557	17.8969
12.0843	19.562
11.9176	20.663
11.7555	23.5424
11.5977	27.3066
11.444	22.8535
11.2944	26.6425
11.1487	34.6625
11.0067	40.7894
10.8682	36.0985
10.7332	32.33
10.6015	41.9579
10.473	51.8512
10.3476	61.0933
10.2251	61.6637
10.1056	55.264
9.98873	54.4418
9.87458	43.6661
9.763	31.0346
9.65392	20.5781
9.54724	15.4497
9.44291	12.7346
9.34082	13.5695
9.24091	15.9087
9.14312	20.3017
9.04739	36.5805
8.95363	40.6107
8.8618	47.014
8.77183	45.7865
8.68368	43.9784
8.59727	38.7235
8.51257	32.0038
8.42951	16.0371
8.34807	5.7495
8.26819	4.6416
8.18981	5.458
8.11292	6.2314
8.03745	6.8789
7.96337	7.436
7.89064	7.9446
7.81924	8.4221
7.74911	8.8818
7.68023	9.2512
7.61256	9.549
7.54608	9.8486
7.48074	10.0549
7.41653	10.2724
7.35341	10.4638
7.29136	10.6035
7.23034	10.7539
7.17033	10.8706
7.11132	11.029
7.05327	11.1052
6.99616	11.1709
6.93996	11.2556
6.88467	11.3344
6.83024	11.3928
6.77667	11.4836
6.72393	11.5029
6.67201	11.5566
6.62089	11.6216
6.57054	11.6321
6.52095	11.7038
6.4721	11.7529
6.42398	11.7785
6.37657	11.8708
6.32986	11.9658
6.28382	12.0058
6.23845	12.0612
6.19373	12.0847
6.14965	12.1491
6.10619	12.1611
6.06334	12.2165
6.02109	12.2192
5.97942	12.2209
5.93832	12.1841
5.89778	12.2004
5.8578	12.2373
5.81835	12.175
5.77943	12.2837
5.74103	12.4087
5.70314	12.459
5.66574	12.4575
5.62883	12.4409
5.5924	12.4702
5.55644	12.4651
5.52093	12.4887
5.48588	12.5127
5.45127	12.5293
5.41709	12.5429
5.38334	12.5669
5.35	12.5598
5.31708	12.5905
5.28456	12.5991
5.25243	12.6235
5.2207	12.6164
5.18934	12.6294
5.15836	12.6543
5.12775	12.6518
5.09749	12.6355
5.0676	12.6308
5.03805	12.6423
5.00884	12.6132
4.97998	12.6091
4.95144	12.5913
4.92322	12.5993
4.89533	12.6164
4.86775	12.603
4.84048	12.6147
4.81351	12.6108
4.78684	12.6245
4.76047	12.6333
4.73439	12.6601
4.70859	12.677
4.68306	12.6609
4.65782	12.6867
4.63284	12.7114
4.60814	12.6767
4.58369	12.6247
4.5595	12.622
4.53557	12.6289
4.51188	12.6367
4.48845	12.6455
4.46525	12.6318
4.44229	12.6318
4.41957	12.635
4.39708	12.6367
4.37481	12.6333
4.35277	12.6469
4.33096	12.6538
4.30935	12.666
4.28797	12.665
4.26679	12.6831
4.24583	12.6926
4.22506	12.6826
4.2045	12.6919
4.18414	12.7202
4.16398	12.7151
4.14401	12.7417
4.12423	12.7133
4.10464	12.7207
4.08523	12.7446
4.066	12.7417
4.04696	12.7256
4.02809	12.7219
4.0094	12.7248
3.99088	12.7148
3.97253	12.7317
3.95435	12.7243
3.93634	12.7412
3.91848	12.7314
3.90079	12.7241
3.88326	12.7446
3.86589	12.7226
3.84867	12.728
3.8316	12.7285
3.81468	12.7324
3.79791	12.7339
3.78129	12.7324
3.76482	12.7426
3.74848	12.7363
3.73229	12.7299
3.71624	12.7392
3.70032	12.7309
3.68454	12.7231
3.6689	12.7185
3.65338	12.7158
3.638	12.7011
3.62275	12.6894
3.60762	12.687
3.59262	12.6655
3.57775	12.6899
3.56299	12.6689
3.54836	12.6787
3.53385	12.6445
3.51945	12.6596
3.50517	12.6921
3.49101	12.7263
3.47696	12.7278
3.46303	12.7094
3.4492	12.7404
3.43549	12.7392
3.42188	12.8198
3.40838	12.8415
3.39499	12.8178
3.38171	12.8139
3.36852	12.882
3.35544	12.8327
3.34246	12.7971
3.32958	12.771
3.3168	12.7531
3.30411	12.7541
3.29153	12.7446
3.27903	12.7287
3.26664	12.7158
3.25433	12.728
3.24212	12.7241
3.23	12.7492
3.21797	12.7463
3.20603	12.8022
3.19418	12.8371
3.18241	12.8925
3.17074	12.9482
3.15914	12.8264
3.14763	12.4856
3.13621	12.3056
3.12487	12.2719
3.11361	12.2951
3.10243	12.3401
3.09133	12.3496
3.0803	12.3332
3.06936	12.3283
3.0585	12.3076
3.04771	12.3007
3.037	12.2954
3.02636	12.2959
3.0158	12.2705
3.00531	12.2734
2.99489	12.2846
2.98454	12.29
2.97427	12.2822
2.96407	12.2522
2.95393	12.2658
2.94387	12.2675
2.93387	12.2356
2.92394	12.2151
2.91408	12.2082
2.90429	12.1963
2.89456	12.2033
2.88489	12.1831
2.87529	12.1867
2.86576	12.1975
2.85628	12.175
2.84687	12.1692
2.83752	12.1496
2.82823	12.1308
2.81901	12.1201
2.80984	12.1279
2.80073	12.1064
2.79168	12.094
2.78269	12.0947
2.77376	12.0761
2.76488	12.0324
2.75606	12.0146
2.7473	12.039
2.73859	12.0014
2.72994	12.0117
2.72134	12.0063
2.7128	12.0102
2.70431	12.0063
2.69587	11.9424
2.68748	11.9736
2.67915	11.9321
2.67087	11.9536
2.66264	11.9394
2.65446	11.938
2.64633	11.9165
2.63825	11.9087
2.63021	11.8789
2.62223	11.9052
2.6143	11.8886
2.60641	11.8349
2.59857	11.9052
2.59078	11.8623
2.58304	11.8466
2.57534	11.8379
2.56768	11.8833
2.56008	11.8559
2.55251	11.8657
2.54499	11.8818
2.53752	11.8872
2.53009	11.8383
2.5227	11.8652
2.51536	11.8652
2.50806	11.8574
2.5008	11.9008
2.49358	11.8447
2.4864	11.8525
2.47927	11.8535
2.47218	11.8271
2.46512	11.7793
2.45811	11.8672
2.45114	11.8613
2.4442	11.8716
2.43731	11.8965
2.43045	11.83
2.42363	11.8847
2.41685	11.8691
2.41011	11.936
2.40341	11.9023
2.39674	11.9345
2.39011	11.9199
2.38352	11.9472
2.37696	11.938
2.37044	11.9536
2.36395	11.9824
2.35751	11.9765
2.35109	11.9785
2.34471	12.0205
2.33836	12.0019
2.33205	12.0019
2.32578	12.0097
2.31953	12.0508
2.31332	12.0117
2.30714	12.0693
2.301	12.0869
2.29489	12.0517
2.28881	12.1133
2.28276	12.0898
2.27675	12.1738
2.27076	12.1513
2.26481	12.1425
2.25889	12.1797
2.253	12.1543
2.24714	12.1679
2.24131	12.1787
2.23551	12.2246
2.22974	12.2343
2.224	12.2265
2.21829	12.2773
2.21261	12.2578
2.20696	12.2158
2.20134	12.291
2.19574	12.3174
2.19018	12.2666
2.18464	12.2197
2.17913	12.3134
2.17365	12.3252
2.16819	12.3759
2.16277	12.3525
2.15737	12.3593
2.15199	12.3486
2.14665	12.3125
2.14133	12.3457
2.13603	12.3984
2.13077	12.3213
2.12552	12.4433
2.12031	12.3965
2.11512	12.3877
2.10995	12.4228
2.10481	12.3203
2.0997	12.3838
2.09461	12.373
2.08954	12.4345
2.0845	12.3603
2.07948	12.3613
