Name: 67701.36
Type: Soil
Class: Lunar
Subclass: Highlands
Particle Size: Fine
Sample No.: 67701.36
Owner: JHU
Origin: Apollo 16 landing site via the NASA Lunar Sample Repository at Johnson
Description: This sample is one of a suite of relatively more aluminous and
Measurement: Directional (10 degree) hemispherical reflectance
X Units: Wavelength (micrometers)
Y Units: Reflectance (percent)
wavelength	value
14.011	0.8758
13.788	0.8236
13.571	1.0259
13.361	1.1832
13.158	1.0696
12.96	1.2165
12.769	1.6452
12.583	2.4472
12.402	3.0447
12.227	3.2394
12.056	3.0326
11.89	2.8669
11.729	2.7278
11.572	2.6658
11.419	2.6066
11.27	2.4899
11.125	2.4738
10.983	2.4949
10.846	2.5917
10.711	2.5264
10.58	2.3945
10.452	2.2278
10.327	1.9449
10.205	1.6819
10.086	1.5888
9.97	1.5105
9.856	1.4579
9.745	1.4771
9.636	1.3489
9.53	1.1842
9.426	1.0977
9.324	1.0867
9.225	1.1076
9.127	1.2615
9.032	1.2978
8.938	1.2526
8.847	1.2627
8.757	1.3245
8.669	1.3317
8.583	1.2405
8.499	1.1164
8.416	0.9054
8.335	0.681
8.255	0.5115
8.177	0.4666
8.1	0.5494
8.025	0.7237
7.951	0.9958
7.879	1.3404
7.808	1.7537
7.737	2.2214
7.669	2.7531
7.601	3.2509
7.535	3.7554
7.47	4.2831
7.406	4.8294
7.343	5.3619
7.281	5.8885
7.22	6.354
7.16	6.8433
7.102	7.2533
7.044	7.684
6.987	8.034
6.931	8.3285
6.875	8.5644
6.821	8.6993
6.768	8.9761
6.715	9.2036
6.663	9.2612
6.612	9.421
6.562	9.677
6.513	9.8738
6.464	10.032
6.416	10.304
6.369	10.181
6.322	10.137
6.276	10.262
6.231	10.364
6.186	10.476
6.142	10.564
6.099	10.727
6.056	10.849
6.014	11.046
5.973	11.574
5.931	12.306
5.891	13.021
5.851	13.644
5.812	14.358
5.773	15.061
5.735	15.511
5.697	15.845
5.66	16.112
5.623	16.511
5.586	16.865
5.551	16.986
5.515	16.862
5.48	16.802
5.446	16.847
5.411	17.203
5.378	17.766
5.345	18.29
5.312	18.648
5.279	19.125
5.247	19.69
5.215	20.2
5.184	20.732
5.153	21.319
5.123	22.016
5.093	22.615
5.063	23.123
5.033	23.757
5.004	24.447
4.975	25.118
4.947	25.757
4.919	26.414
4.891	27.045
4.863	27.641
4.836	28.25
4.809	28.815
4.782	29.264
4.756	29.742
4.73	30.326
4.704	30.967
4.679	31.544
4.654	32.052
4.629	32.815
4.604	33.636
4.58	34.347
4.556	34.963
4.532	35.49
4.508	35.913
4.485	36.254
4.461	36.453
4.439	36.556
4.416	36.645
4.393	36.802
4.371	37.074
4.349	37.403
4.327	37.762
4.306	38.202
4.284	38.729
4.263	39.058
4.242	39.424
4.222	39.574
4.201	39.587
4.181	39.696
4.161	39.772
4.141	39.869
4.121	39.943
4.101	40.005
4.082	40.083
4.063	40.129
4.044	40.178
4.025	40.251
4.006	40.292
3.988	40.372
3.97	40.394
3.951	40.431
3.933	40.434
3.916	40.433
3.898	40.433
3.88	40.46
3.863	40.46
3.846	40.421
3.829	40.44
3.812	40.436
3.795	40.388
3.779	40.334
3.762	40.307
3.746	40.235
3.73	40.212
3.714	40.147
3.698	40.074
3.682	40.001
3.666	39.924
3.651	39.861
3.636	39.846
3.62	39.756
3.605	39.659
3.59	39.619
3.575	39.512
3.561	39.412
3.546	39.297
3.531	39.131
3.517	38.712
3.503	37.671
3.489	37.924
3.475	38.017
3.461	38.054
3.447	37.664
3.433	37.031
3.42	35.845
3.406	36.208
3.393	37.192
3.38	36.766
3.366	37.05
3.353	37.827
3.34	37.942
3.327	37.915
3.315	37.887
3.302	37.808
3.289	37.7
3.277	37.625
3.265	37.463
3.252	37.392
3.24	37.255
3.228	37.164
3.216	37.061
3.204	36.925
3.192	36.774
3.18	36.723
3.169	36.593
3.157	36.493
3.146	36.409
3.134	36.284
3.123	36.198
3.112	36.106
3.101	36.009
3.09	35.94
3.079	35.797
3.067	35.767
3.057	35.704
3.046	35.633
3.035	35.614
3.025	35.547
3.014	35.408
3.004	35.364
2.993	35.264
2.983	35.203
2.973	35.17
2.962	35.15
2.952	35.086
2.942	35.045
2.932	34.992
2.922	35.003
2.912	35.017
2.903	35.023
2.893	34.996
2.883	35.06
2.874	35.07
2.864	35.11
2.855	35.073
2.845	35.147
2.836	35.203
2.827	35.278
2.817	35.461
2.808	35.529
2.799	35.708
2.79	35.874
2.781	36.095
2.772	36.446
2.763	36.848
2.755	37.172
2.746	37.364
2.737	37.66
2.728	37.817
2.72	38.223
2.711	38.36
2.703	38.399
2.695	38.592
2.686	38.611
2.678	38.703
2.67	38.871
2.661	38.679
2.653	38.671
2.645	38.628
2.637	38.554
2.629	38.631
2.621	38.642
2.613	38.49
2.605	38.537
2.597	38.396
2.59	38.367
2.582	38.329
2.574	38.236
2.566	38.153
2.559	38.047
2.551	38.067
2.544	37.954
2.536	37.919
2.529	37.831
2.522	37.751
2.514	37.726
2.507	37.648
2.5	37.61
2.492	37.54
2.485	37.465
2.478	37.444
2.471	37.394
2.464	37.337
2.457	37.265
2.45	37.231
2.443	37.178
2.436	37.093
2.429	37.043
2.422	36.981
2.416	36.954
2.409	36.858
2.402	36.849
2.396	36.792
2.389	36.719
2.382	36.69
2.376	36.606
2.369	36.55
2.363	36.497
2.356	36.46
2.35	36.44
2.344	36.329
2.337	36.284
2.331	36.239
2.325	36.167
2.318	36.116
2.312	36.094
2.306	35.982
2.3	35.954
2.294	35.928
2.288	35.827
2.282	35.782
2.276	35.727
2.27	35.719
2.264	35.662
2.258	35.618
2.252	35.515
2.246	35.451
2.24	35.448
2.235	35.384
2.229	35.289
2.223	35.283
2.217	35.204
2.212	35.175
2.206	35.112
2.2	35.11
2.195	34.989
2.189	34.945
2.184	34.951
2.178	34.856
2.173	34.828
2.167	34.778
2.162	34.735
2.156	34.64
2.151	34.498
2.146	34.552
2.14	34.53
2.135	34.493
2.13	34.457
2.125	34.349
2.119	34.38
2.114	34.209
2.109	34.222
2.104	34.151
2.099	34.151
2.094	34.12
2.089	34.065
2.084	34.01
