Name: Dolomite CaMg(CO3)2
Type: Mineral
Class: Carbonates
Particle Size: Fine  (Less than 2 Micrometers)
Sample No.: dolomite.2
Owner: JHU
Wavelength Range: IR
Origin: Hunt and Salisbury Collection #102B;  Sample from Lee,
Description: The sample appeared to be pure white dolomite in hand
Measurement: Transmission
X Units: Wavelength (micrometers)
Y Units: Transmittance (percent)
wavelength	value
25.0442	23.3828
24.3388	30.582
23.6719	45.828
23.0407	62.3045
22.4422	72.4842
21.8741	79.2732
21.334	83.4412
20.8199	86.1209
20.33	87.5369
19.8627	88.5759
19.4163	89.6228
18.9896	91.074
18.5812	92.031
18.19	92.9382
17.815	93.7185
17.4551	94.4158
17.1094	94.8523
16.7772	95.0505
16.4576	95.2595
16.15	95.7029
15.8537	95.5818
15.568	95.7244
15.2925	95.6355
15.0265	95.865
14.7697	95.821
14.5214	95.5632
14.2814	95.0798
14.0492	93.4343
13.8244	83.6013
13.6067	82.5315
13.3957	95.3831
13.1912	96.7595
12.9929	97.0544
12.8004	96.9788
12.6135	96.9001
12.432	96.9319
12.2557	96.6272
12.0843	96.3635
11.9176	95.324
11.7555	90.4861
11.5977	87.8128
11.444	55.7713
11.2944	23.9345
11.1487	87.9519
11.0067	93.4783
10.8682	94.4417
10.7332	94.8362
10.6015	94.9314
10.473	94.7585
10.3476	94.5544
10.2251	94.2244
10.1056	93.6736
9.98873	93.094
9.87458	92.5574
9.763	91.8958
9.65392	91.6741
9.54724	91.2029
9.44291	91.117
9.34082	90.6477
9.24091	90.1716
9.14312	89.7771
9.04739	90.3103
8.95363	90.9978
8.8618	90.657
8.77183	90.1018
8.68368	89.8533
8.59727	89.3528
8.51257	88.6848
8.42951	87.8367
8.34807	87.4258
8.26819	86.8262
8.18981	85.5752
8.11292	84.2383
8.03745	83.0918
7.96337	81.8037
7.89064	80.2644
7.81924	78.306
7.74911	75.5792
7.68023	72.8348
7.61256	69.7938
7.54608	65.6339
7.48074	60.5218
7.41653	54.8038
7.35341	47.3065
7.29136	38.5253
7.23034	29.6261
7.17033	19.7285
7.11132	10.2834
7.05327	4.8967
6.99616	1.1533
6.93996	0.3594
6.88467	0.2737
6.83024	0.5022
6.77667	0.9475
6.72393	1.801
6.67201	3.7226
6.62089	8.6972
6.57054	17.2182
6.52095	27.1115
6.4721	37.1769
6.42398	46.9464
6.37657	55.9999
6.32986	63.201
6.28382	67.4337
6.23845	70.4998
6.19373	73.6517
6.14965	76.9717
6.10619	79.0906
6.06334	80.9383
6.02109	82.3702
5.97942	84.1104
5.93832	85.4231
5.89778	86.7637
5.8578	87.9763
5.81835	88.9776
5.77943	89.6951
5.74103	90.4588
5.70314	91.2168
5.66574	91.6736
5.62883	91.7673
5.5924	91.5798
5.55644	90.5833
5.52093	87.6172
5.48588	87.3045
5.45127	91.6965
5.41709	93.8601
5.38334	94.6494
5.35	95.1211
5.31708	95.5273
5.28456	95.8555
5.25243	96.1514
5.2207	96.3166
5.18934	96.5867
5.15836	96.8066
5.12775	96.9392
5.09749	97.1279
5.0676	97.1296
5.03805	97.3064
5.00884	97.4998
4.97998	97.6096
4.95144	97.7629
4.92322	97.8186
4.89533	97.8498
4.86775	97.9285
4.84048	97.9656
4.81351	98.0803
4.78684	98.1545
4.76047	98.1838
4.73439	98.1819
4.70859	98.1218
4.68306	98.1199
4.65782	97.9597
4.63284	97.9831
4.60814	98.0222
4.58369	98.1272
4.5595	98.2165
4.53557	98.262
4.51188	98.3157
4.48845	98.4285
4.46525	98.3889
4.44229	98.3484
4.41957	98.3723
4.39708	98.384
4.37481	98.5061
4.35277	98.5095
4.33096	98.4631
4.30935	98.4314
4.28797	98.4119
4.26679	98.3933
4.24583	98.5715
4.22506	98.5232
4.2045	98.4802
4.18414	98.4734
4.16398	98.5393
4.14401	98.4358
4.12423	98.4001
4.10464	98.4382
4.08523	98.2981
4.066	98.2253
4.04696	98.0037
4.02809	97.7136
4.0094	96.8767
3.99088	95.6716
3.97253	92.2073
3.95435	90.9255
3.93634	91.4729
3.91848	92.4002
3.90079	94.2996
3.88326	95.0359
3.86589	95.5159
3.84867	96.6511
3.8316	96.9006
3.81468	96.1648
3.79791	96.0066
3.78129	96.6096
3.76482	97.5466
3.74848	98.0198
3.73229	98.135
3.71624	98.1257
3.70032	98.1531
3.68454	98.1677
3.6689	98.1912
3.65338	98.2073
3.638	98.1663
3.62275	98.0745
3.60762	98.0666
3.59262	97.9734
3.57775	97.9861
3.56299	97.8162
3.54836	97.5847
3.53385	97.5017
3.51945	97.2263
3.50517	96.5491
3.49101	95.6174
3.47696	94.571
3.46303	93.8596
3.4492	93.5081
3.43549	94.2585
3.42188	94.7693
3.40838	94.947
3.39499	95.1755
3.38171	95.3787
3.36852	95.5452
3.35544	95.1604
3.34246	94.8455
3.32958	94.7732
3.3168	94.4646
3.30411	94.4768
3.29153	95.9651
3.27903	96.2654
3.26664	96.2874
3.25433	96.3303
3.24212	96.2678
3.23	96.1404
3.21797	95.9822
3.20603	95.8962
3.19418	95.8303
3.18241	95.7068
3.17074	95.6448
3.15914	95.4509
3.14763	95.3503
3.13621	95.2732
3.12487	95.2732
3.11361	95.2214
3.10243	95.1638
3.09133	95.0398
3.0803	94.8308
3.06936	94.8972
3.0585	94.6736
3.04771	94.7859
3.037	94.6951
3.02636	94.6482
3.0158	94.8123
3.00531	94.7341
2.99489	94.8728
2.98454	95.1013
2.97427	95.2664
2.96407	95.7185
2.95393	95.9539
2.94387	96.3376
2.93387	96.5173
2.92394	96.5759
2.91408	96.6345
2.90429	96.7263
2.89456	96.7517
2.88489	96.4773
2.87529	96.2888
2.86576	96.1033
2.85628	96.0759
2.84687	96.031
2.83752	96.0124
2.82823	95.9373
2.81901	96.1687
2.80984	96.2146
2.80073	96.0408
2.79168	95.9275
2.78269	96.0427
2.77376	95.9617
2.76488	95.9998
2.75606	96.0212
2.7473	96.113
2.73859	96.239
2.72994	96.0984
2.72134	95.9929
2.7128	96.3171
2.70431	96.1775
2.69587	96.0554
2.68748	96.0505
2.67915	96.1482
2.67087	96.0828
2.66264	95.8093
2.65446	95.8484
2.64633	95.739
2.63825	95.8171
2.63021	95.7107
2.62223	95.4812
2.6143	95.7546
2.60641	95.5818
2.59857	95.7302
2.59078	95.8083
2.58304	95.7781
2.57534	95.5349
2.56768	95.4607
2.56008	95.4861
2.55251	95.2009
2.54499	95.1443
2.53752	95.4822
2.53009	95.3025
2.5227	95.1091
2.51536	94.8298
2.50806	95.1169
2.5008	95.0232
2.49358	94.8533
2.4864	95.1169
2.47927	94.8709
2.47218	94.7205
2.46512	94.7029
2.45811	94.6892
2.45114	94.6853
2.4442	94.8669
2.43731	94.7654
2.43045	94.6716
2.42363	94.4724
2.41685	94.613
2.41011	94.5017
2.40341	94.5232
2.39674	94.6013
2.39011	94.281
2.38352	94.5584
2.37696	94.3474
2.37044	94.3865
2.36395	94.3904
2.35751	94.2927
2.35109	93.822
2.34471	94.4294
2.33836	94.1423
2.33205	94.0115
2.32578	93.8826
2.31953	94.1755
2.31332	93.9216
2.30714	94.1404
2.301	93.9939
2.29489	94.0349
2.28881	94.1951
2.28276	93.7732
2.27675	93.8923
2.27076	93.7146
2.26481	93.7693
2.25889	94.0486
2.253	93.781
2.24714	93.906
2.24131	93.5388
2.23551	93.8767
2.22974	93.9373
2.224	93.2673
2.21829	93.6716
2.21261	93.3591
2.20696	93.6189
2.20134	93.3455
2.19574	93.4548
2.19018	93.8142
2.18464	92.9998
2.17913	93.1013
2.17365	93.6267
2.16819	93.8533
2.16277	93.6423
2.15737	93.7419
2.15199	93.324
2.14665	93.1794
2.14133	93.1677
2.13603	93.3904
2.13077	93.3201
2.12552	93.5193
2.12031	92.8865
2.11512	93.5466
2.10995	93.031
2.10481	93.0154
2.0997	93.0857
2.09461	93.5154
2.08954	93.2068
2.0845	93.5154
2.07948	93.1443
