Name: Smectite Na0.33Fe2+3(Si,Al)4 O10.3H2O
Type: Mineral
Class: Silicates
Subclass: Phyllosilicates (Sheet silicates); Smectite Group
Particle Size: 0-2 micrometers.  (Packed powder simulates coarse.)
Sample No.: smectite.1
Owner: JHU
Wavelength Range: IR
Origin: Grant Co., Washington, USA via the Clay Mineral Society
Description: Described by CMS as a ferruginous smectite, the sample
Measurement: Bidirectional reflectance
X Units: Wavelength (micrometers)
Y Units: Reflectance (percent)
wavelength	value
25.0442	10.0459
24.3388	11.0957
23.6719	11.469
23.0407	11.5522
22.4422	11.7182
21.8741	11.7026
21.334	11.6108
20.8199	10.437
20.33	11.4038
19.8627	11.967
19.4163	12.592
18.9896	13.1804
18.5812	13.2617
18.19	12.7253
17.815	11.2868
17.4551	9.4087
17.1094	7.3598
16.7772	5.8293
16.4576	4.7576
16.15	4.0232
15.8537	3.7322
15.568	3.7251
15.2925	3.8984
15.0265	4.094
14.7697	4.1909
14.5214	4.1282
14.2814	4.1467
14.0492	4.2668
13.8244	4.4336
13.6067	4.6308
13.3957	4.7517
13.1912	4.8679
12.9929	4.9421
12.8004	5.0268
12.6135	5.05
12.432	5.1352
12.2557	5.2021
12.0843	5.0471
11.9176	5.2004
11.7555	5.3201
11.5977	5.4399
11.444	5.3821
11.2944	5.23
11.1487	5.4385
11.0067	5.6592
10.8682	5.8091
10.7332	5.9158
10.6015	6.0957
10.473	6.3218
10.3476	6.5681
10.2251	6.8623
10.1056	7.2871
9.98873	7.8193
9.87458	8.4184
9.763	9.0752
9.65392	9.7605
9.54724	10.3984
9.44291	10.8825
9.34082	10.8169
9.24091	10.2112
9.14312	9.5832
9.04739	9.134
8.95363	8.9267
8.8618	9.1411
8.77183	9.4136
8.68368	9.1557
8.59727	8.102
8.51257	6.3003
8.42951	3.9101
8.34807	1.8486
8.26819	1.2646
8.18981	1.5308
8.11292	1.9209
8.03745	2.2944
7.96337	2.6523
7.89064	2.9954
7.81924	3.3479
7.74911	3.6716
7.68023	3.9726
7.61256	4.2322
7.54608	4.4714
7.48074	4.6797
7.41653	4.8735
7.35341	5.0359
7.29136	5.1702
7.23034	5.2956
7.17033	5.4348
7.11132	5.5762
7.05327	5.7004
6.99616	5.8633
6.93996	6.0337
6.88467	6.1931
6.83024	6.3393
6.77667	6.448
6.72393	6.5954
6.67201	6.7124
6.62089	6.7737
6.57054	6.7805
6.52095	6.7641
6.4721	6.6897
6.42398	6.5122
6.37657	6.2898
6.32986	5.9038
6.28382	5.2707
6.23845	4.4302
6.19373	3.8379
6.14965	3.5469
6.10619	3.5102
6.06334	3.6631
6.02109	3.8911
5.97942	4.2942
5.93832	4.8535
5.89778	5.4487
5.8578	5.9722
5.81835	6.3457
5.77943	6.7207
5.74103	7.0212
5.70314	7.2519
5.66574	7.4143
5.62883	7.5029
5.5924	7.5229
5.55644	7.5049
5.52093	7.4907
5.48588	7.4858
5.45127	7.5469
5.41709	7.6521
5.38334	7.8044
5.35	7.9768
5.31708	8.1741
5.28456	8.3242
5.25243	8.4438
5.2207	8.5493
5.18934	8.6758
5.15836	8.831
5.12775	9.021
5.09749	9.2483
5.0676	9.4907
5.03805	9.7673
5.00884	10.0288
4.97998	10.237
4.95144	10.4194
4.92322	10.5693
4.89533	10.6858
4.86775	10.7983
4.84048	10.8855
4.81351	10.9878
4.78684	11.0446
4.76047	11.1189
4.73439	11.1657
4.70859	11.2163
4.68306	11.2468
4.65782	11.2822
4.63284	11.3305
4.60814	11.3667
4.58369	11.3947
4.5595	11.4221
4.53557	11.4638
4.51188	11.5136
4.48845	11.5737
4.46525	11.6296
4.44229	11.7058
4.41957	11.7895
4.39708	11.8645
4.37481	11.9524
4.35277	12.0427
4.33096	12.1421
4.30935	12.2512
4.28797	12.3593
4.26679	12.4638
4.24583	12.5925
4.22506	12.7107
4.2045	12.8369
4.18414	12.9536
4.16398	13.062
4.14401	13.1611
4.12423	13.2854
4.10464	13.3979
4.08523	13.5239
4.066	13.6184
4.04696	13.7148
4.02809	13.8098
4.0094	13.8862
3.99088	13.9416
3.97253	13.9799
3.95435	14.0112
3.93634	14.011
3.91848	14.0136
3.90079	13.9904
3.88326	13.9582
3.86589	13.8725
3.84867	13.8051
3.8316	13.7212
3.81468	13.6201
3.79791	13.5022
3.78129	13.3872
3.76482	13.269
3.74848	13.1279
3.73229	12.9968
3.71624	12.8342
3.70032	12.6548
3.68454	12.4538
3.6689	12.2524
3.65338	12.0671
3.638	11.8889
3.62275	11.6967
3.60762	11.5315
3.59262	11.3347
3.57775	11.1428
3.56299	10.9533
3.54836	10.7155
3.53385	10.4768
3.51945	10.1784
3.50517	9.8337
3.49101	9.7165
3.47696	9.5676
3.46303	9.3415
3.4492	9.0925
3.43549	8.8244
3.42188	8.448
3.40838	8.2422
3.39499	8.144
3.38171	7.9846
3.36852	7.8044
3.35544	7.5932
3.34246	7.3652
3.32958	7.1465
3.3168	6.9199
3.30411	6.7158
3.29153	6.5129
3.27903	6.2839
3.26664	6.0791
3.25433	5.8711
3.24212	5.678
3.23	5.4958
3.21797	5.3118
3.20603	5.1533
3.19418	4.9587
3.18241	4.8113
3.17074	4.6799
3.15914	4.5417
3.14763	4.4182
3.13621	4.2949
3.12487	4.1921
3.11361	4.1064
3.10243	4.0481
3.09133	3.9873
3.0803	3.9553
3.06936	3.9289
3.0585	3.9126
3.04771	3.9036
3.037	3.8704
3.02636	3.8176
3.0158	3.7695
3.00531	3.6992
2.99489	3.6528
2.98454	3.6018
2.97427	3.5657
2.96407	3.5137
2.95393	3.5
2.94387	3.4719
2.93387	3.4614
2.92394	3.4475
2.91408	3.4297
2.90429	3.4297
2.89456	3.4092
2.88489	3.3879
2.87529	3.3865
2.86576	3.3735
2.85628	3.3745
2.84687	3.3308
2.83752	3.2725
2.82823	3.093
2.81901	2.896
2.80984	2.7341
2.80073	2.6033
2.79168	2.5168
2.78269	2.488
2.77376	2.4807
2.76488	2.478
2.75606	2.5124
2.7473	2.6001
2.73859	2.7683
2.72994	2.9795
2.72134	3.3933
2.7128	4.188
2.70431	5.2197
2.69587	6.2895
2.68748	7.6733
2.67915	8.6604
2.67087	9.4136
2.66264	10.0761
2.65446	10.5049
2.64633	10.8818
2.63825	11.1909
2.63021	11.3889
2.62223	11.6672
2.6143	11.852
2.60641	12.0146
2.59857	12.2094
2.59078	12.3606
2.58304	12.4196
2.57534	12.5507
2.56768	12.6601
2.56008	12.7431
2.55251	12.832
2.54499	12.9048
2.53752	13.0092
2.53009	13.0791
2.5227	13.1157
2.51536	13.1565
2.50806	13.2153
2.5008	13.2788
2.49358	13.3681
2.4864	13.5385
2.47927	13.747
2.47218	13.8574
2.46512	13.9487
2.45811	14.0859
2.45114	14.2385
2.4442	14.2929
2.43731	14.4106
2.43045	14.4965
2.42363	14.5473
2.41685	14.5986
2.41011	14.601
2.40341	14.5962
2.39674	14.6953
2.39011	14.8261
2.38352	15.0864
2.37696	15.2837
2.37044	15.5371
2.36395	15.8071
2.35751	16.1225
2.35109	16.4213
2.34471	16.6679
2.33836	16.8344
2.33205	16.9414
2.32578	17.0595
2.31953	17.0744
2.31332	16.8557
2.30714	16.4384
2.301	15.9174
2.29489	15.4077
2.28881	15.073
2.28276	15.1701
2.27675	15.6674
2.27076	16.3391
2.26481	16.8977
2.25889	17.2146
2.253	17.1911
2.24714	16.9611
2.24131	16.7883
2.23551	16.7934
2.22974	16.8728
2.224	17.1699
2.21829	17.5639
2.21261	17.8344
2.20696	18.1105
2.20134	18.2568
2.19574	18.4152
2.19018	18.583
2.18464	18.6987
2.17913	18.9794
2.17365	19.2509
2.16819	19.4731
2.16277	19.6201
2.15737	19.7216
2.15199	19.7209
2.14665	19.708
2.14133	19.7563
2.13603	19.7805
2.13077	19.747
2.12552	19.8117
2.12031	19.874
2.11512	19.8178
2.10995	19.8095
2.10481	19.9179
2.0997	19.7912
2.09461	19.8977
2.08954	19.9355
2.0845	19.9511
2.07948	19.9055
