Name: Olivine (Fo92) (Fe+2,Mg)2SiO4
Type: Mineral
Class: Silicates
Subclass: Nesosilicates (Isolated tetrahedra); (Olivine Group)
Particle Size: Solid
Sample No.: olivine.12
Owner: JHU
Wavelength Range: IR
Origin: Ward's Natural Science Establishment.
Description: The hand sample consisted of small, translucent green
Measurement: Bidirectional reflectance
X Units: Wavelength (micrometers)
Y Units: Reflectance (percent)
wavelength	value
25.0442	30.3837
24.3388	36.4926
23.6719	41.4315
23.0407	33.8178
22.4422	26.5168
21.8741	24.2197
21.334	20.0383
20.8199	11.9839
20.33	12.2951
19.8627	22.2309
19.4163	21.6313
18.9896	29.5014
18.5812	26.6742
18.19	24.8239
17.815	19.5405
17.4551	14.3208
17.1094	10.289
16.7772	10.1665
16.4576	13.4843
16.15	15.8203
15.8537	15.5637
15.568	12.2527
15.2925	6.9084
15.0265	4.5298
14.7697	4.3555
14.5214	4.6504
14.2814	5.0046
14.0492	5.404
13.8244	5.7798
13.6067	6.1972
13.3957	6.6958
13.1912	7.1538
12.9929	7.6826
12.8004	8.2705
12.6135	8.9795
12.432	9.8442
12.2557	11.008
12.0843	12.8772
11.9176	14.3659
11.7555	11.948
11.5977	16.3798
11.444	22.5659
11.2944	26.8346
11.1487	28.9223
11.0067	29.8036
10.8682	30.5514
10.7332	31.5216
10.6015	33.2611
10.473	35.2126
10.3476	22.6552
10.2251	22.9186
10.1056	28.757
9.98873	26.5876
9.87458	28.6286
9.763	27.8783
9.65392	25.5705
9.54724	23.507
9.44291	22.3139
9.34082	20.663
9.24091	14.2558
9.14312	8.6155
9.04739	4.686
8.95363	2.606
8.8618	2.0269
8.77183	2.0061
8.68368	2.0989
8.59727	2.241
8.51257	2.406
8.42951	2.5447
8.34807	2.6848
8.26819	2.8264
8.18981	2.9497
8.11292	3.0554
8.03745	3.1562
7.96337	3.2471
7.89064	3.3442
7.81924	3.4241
7.74911	3.4905
7.68023	3.5627
7.61256	3.6182
7.54608	3.6836
7.48074	3.7375
7.41653	3.8125
7.35341	3.8694
7.29136	3.925
7.23034	3.9814
7.17033	4.0437
7.11132	4.0881
7.05327	4.1433
6.99616	4.1785
6.93996	4.2146
6.88467	4.2656
6.83024	4.2888
6.77667	4.3174
6.72393	4.3367
6.67201	4.3745
6.62089	4.4058
6.57054	4.438
6.52095	4.4932
6.4721	4.5322
6.42398	4.5608
6.37657	4.603
6.32986	4.6496
6.28382	4.689
6.23845	4.7029
6.19373	4.7151
6.14965	4.7285
6.10619	4.7327
6.06334	4.77
6.02109	4.7659
5.97942	4.7629
5.93832	4.7493
5.89778	4.7617
5.8578	4.7864
5.81835	4.7793
5.77943	4.8066
5.74103	4.8215
5.70314	4.833
5.66574	4.8777
5.62883	4.9026
5.5924	4.9248
5.55644	4.947
5.52093	4.9621
5.48588	4.9768
5.45127	4.9873
5.41709	4.9914
5.38334	5.0181
5.35	5.0195
5.31708	5.0432
5.28456	5.0493
5.25243	5.0659
5.2207	5.0776
5.18934	5.0857
5.15836	5.0967
5.12775	5.1077
5.09749	5.1106
5.0676	5.1201
5.03805	5.1308
5.00884	5.1409
4.97998	5.157
4.95144	5.1555
4.92322	5.1643
4.89533	5.1755
4.86775	5.1789
4.84048	5.1916
4.81351	5.197
4.78684	5.2163
4.76047	5.2314
4.73439	5.2407
4.70859	5.248
4.68306	5.2539
4.65782	5.2727
4.63284	5.2815
4.60814	5.3047
4.58369	5.3039
4.5595	5.3174
4.53557	5.3298
4.51188	5.3291
4.48845	5.3328
4.46525	5.3462
4.44229	5.3572
4.41957	5.3545
4.39708	5.3586
4.37481	5.3572
4.35277	5.3703
4.33096	5.3747
4.30935	5.3677
4.28797	5.3752
4.26679	5.383
4.24583	5.3828
4.22506	5.3996
4.2045	5.3872
4.18414	5.4187
4.16398	5.4097
4.14401	5.4165
4.12423	5.418
4.10464	5.4263
4.08523	5.4309
4.066	5.4309
4.04696	5.447
4.02809	5.4448
4.0094	5.4595
3.99088	5.4563
3.97253	5.4595
3.95435	5.4519
3.93634	5.468
3.91848	5.4751
3.90079	5.4785
3.88326	5.4761
3.86589	5.4714
3.84867	5.468
3.8316	5.4836
3.81468	5.4761
3.79791	5.4792
3.78129	5.48
3.76482	5.4878
3.74848	5.4851
3.73229	5.487
3.71624	5.491
3.70032	5.4858
3.68454	5.4897
3.6689	5.491
3.65338	5.4995
3.638	5.4997
3.62275	5.5049
3.60762	5.5105
3.59262	5.49
3.57775	5.5129
3.56299	5.5156
3.54836	5.5132
3.53385	5.5149
3.51945	5.5312
3.50517	5.5566
3.49101	5.5271
3.47696	5.5239
3.46303	5.5305
3.4492	5.5339
3.43549	5.5454
3.42188	5.6123
3.40838	5.5478
3.39499	5.5198
3.38171	5.5095
3.36852	5.4927
3.35544	5.4805
3.34246	5.4834
3.32958	5.4822
3.3168	5.4924
3.30411	5.4944
3.29153	5.5012
3.27903	5.4985
3.26664	5.4973
3.25433	5.5007
3.24212	5.5002
3.23	5.5007
3.21797	5.4958
3.20603	5.4968
3.19418	5.5068
3.18241	5.5012
3.17074	5.5078
3.15914	5.5063
3.14763	5.4997
3.13621	5.4912
3.12487	5.5046
3.11361	5.4844
3.10243	5.4888
3.09133	5.4856
3.0803	5.4924
3.06936	5.4714
3.0585	5.4692
3.04771	5.4734
3.037	5.4753
3.02636	5.4665
3.0158	5.4448
3.00531	5.4368
2.99489	5.438
2.98454	5.4531
2.97427	5.439
2.96407	5.4404
2.95393	5.426
2.94387	5.4311
2.93387	5.4324
2.92394	5.4043
2.91408	5.4028
2.90429	5.404
2.89456	5.3989
2.88489	5.3989
2.87529	5.3977
2.86576	5.3716
2.85628	5.383
2.84687	5.3818
2.83752	5.3662
2.82823	5.3579
2.81901	5.3623
2.80984	5.3306
2.80073	5.3332
2.79168	5.3364
2.78269	5.3227
2.77376	5.3188
2.76488	5.2942
2.75606	5.2786
2.7473	5.3061
2.73859	5.2856
2.72994	5.2922
2.72134	5.2637
2.7128	5.2812
2.70431	5.2524
2.69587	5.2441
2.68748	5.2388
2.67915	5.2314
2.67087	5.2329
2.66264	5.2388
2.65446	5.2224
2.64633	5.2451
2.63825	5.2173
2.63021	5.2056
2.62223	5.2261
2.6143	5.2163
2.60641	5.1987
2.59857	5.2046
2.59078	5.1963
2.58304	5.1865
2.57534	5.1745
2.56768	5.1909
2.56008	5.1653
2.55251	5.1814
2.54499	5.1846
2.53752	5.187
2.53009	5.1631
2.5227	5.1587
2.51536	5.1728
2.50806	5.1592
2.5008	5.1645
2.49358	5.1658
2.4864	5.1416
2.47927	5.1369
2.47218	5.1272
2.46512	5.1118
2.45811	5.1203
2.45114	5.1157
2.4442	5.1108
2.43731	5.1216
2.43045	5.1225
2.42363	5.1182
2.41685	5.0891
2.41011	5.1152
2.40341	5.0908
2.39674	5.0854
2.39011	5.0784
2.38352	5.0786
2.37696	5.0979
2.37044	5.082
2.36395	5.0757
2.35751	5.0552
2.35109	5.0752
2.34471	5.093
2.33836	5.0776
2.33205	5.0713
2.32578	5.0644
2.31953	5.0823
2.31332	5.0859
2.30714	5.0549
2.301	5.0644
2.29489	5.0752
2.28881	5.0871
2.28276	5.0891
2.27675	5.0742
2.27076	5.0683
2.26481	5.0852
2.25889	5.0654
2.253	5.0823
2.24714	5.1064
2.24131	5.0869
2.23551	5.0676
2.22974	5.1055
2.224	5.0871
2.21829	5.1037
2.21261	5.1035
2.20696	5.0884
2.20134	5.0918
2.19574	5.1167
2.19018	5.1318
2.18464	5.1172
2.17913	5.1059
2.17365	5.1162
2.16819	5.1382
2.16277	5.1372
2.15737	5.1138
2.15199	5.1015
2.14665	5.0972
2.14133	5.1308
2.13603	5.1133
2.13077	5.0996
2.12552	5.1182
2.12031	5.1411
2.11512	5.082
2.10995	5.1831
2.10481	5.1079
2.0997	5.1079
2.09461	5.1719
2.08954	5.1875
2.0845	5.1841
2.07948	5.1416
