Name: Olivine (Fo88) (Fe+2,Mg)2SiO4
Type: Mineral
Class: Silicates
Subclass: Nesosilicates (Isolated tetrahedra); (Olivine Group)
Particle Size: Fine  (Less than 2 Micrometers)
Sample No.: olivine.8
Owner: JHU
Wavelength Range: IR
Origin: Brenham, Kansas (location of meteorite fall) via Trude King
Description: Olivine obtained from the Brenham meteorite was
Measurement: Transmission
X Units: Wavelength (micrometers)
Y Units: Transmittance (percent)
wavelength	value
25.0442	39.9999
24.3388	25.8749
23.6719	25.3984
23.0407	37.58
22.4422	50.7987
21.8741	53.7284
21.334	55.4295
20.8199	61.1893
20.33	51.2421
19.8627	33.0194
19.4163	34.372
18.9896	37.828
18.5812	42.9686
18.19	51.2069
17.815	68.7576
17.4551	78.2576
17.1094	79.0467
16.7772	62.619
16.4576	53.3983
16.15	63.4315
15.8537	77.8094
15.568	84.5799
15.2925	88.1541
15.0265	90.1941
14.7697	91.197
14.5214	91.8884
14.2814	92.5115
14.0492	93.2908
13.8244	93.3064
13.6067	93.303
13.3957	92.7068
13.1912	91.6331
12.9929	90.0623
12.8004	87.2088
12.6135	84.5467
12.432	80.7776
12.2557	76.1702
12.0843	64.9398
11.9176	49.0668
11.7555	54.1844
11.5977	40.8183
11.444	24.3442
11.2944	14.4677
11.1487	17.9282
11.0067	22.6586
10.8682	26.4853
10.7332	34.0878
10.6015	40.391
10.473	37.2899
10.3476	46.0072
10.2251	31.3202
10.1056	29.2978
9.98873	32.5878
9.87458	41.6806
9.763	52.7679
9.65392	62.1141
9.54724	68.6527
9.44291	72.6639
9.34082	74.8665
9.24091	75.4559
9.14312	77.3284
9.04739	80.2742
8.95363	82.8015
8.8618	85.072
8.77183	86.5496
8.68368	87.5476
8.59727	88.4492
8.51257	89.2715
8.42951	90.5789
8.34807	92.0691
8.26819	93.3757
8.18981	94.3232
8.11292	94.9539
8.03745	95.3269
7.96337	95.6453
7.89064	95.8428
7.81924	96.0862
7.74911	96.4287
7.68023	96.8025
7.61256	96.9228
7.54608	97.1064
7.48074	97.4492
7.41653	97.6887
7.35341	97.7051
7.29136	97.9141
7.23034	97.8935
7.17033	97.915
7.11132	97.9648
7.05327	98.1387
6.99616	98.2507
6.93996	98.3184
6.88467	98.3894
6.83024	98.5461
6.77667	98.6494
6.72393	98.8301
6.67201	98.9502
6.62089	99.04
6.57054	99.0237
6.52095	99.0168
6.4721	98.9519
6.42398	98.7322
6.37657	98.7136
6.32986	98.4812
6.28382	98.3015
6.23845	98.124
6.19373	98.0789
6.14965	98.1985
6.10619	98.2497
6.06334	98.2502
6.02109	98.0098
5.97942	98.043
5.93832	98.5134
5.89778	98.9785
5.8578	99.1687
5.81835	98.9316
5.77943	98.9011
5.74103	99.0273
5.70314	99.1081
5.66574	98.9988
5.62883	98.863
5.5924	98.99
5.55644	99.0847
5.52093	99.2256
5.48588	99.1648
5.45127	99.1975
5.41709	99.1445
5.38334	99.2471
5.35	99.238
5.31708	99.2939
5.28456	99.3262
5.25243	99.3337
5.2207	99.2737
5.18934	99.3516
5.15836	99.3572
5.12775	99.3603
5.09749	99.3445
5.0676	99.3389
5.03805	99.3611
5.00884	99.3769
4.97998	99.3181
4.95144	99.3132
4.92322	99.3633
4.89533	99.3992
4.86775	99.5051
4.84048	99.4792
4.81351	99.5188
4.78684	99.529
4.76047	99.4841
4.73439	99.4285
4.70859	99.3874
4.68306	99.3801
4.65782	99.2869
4.63284	99.2873
4.60814	99.24
4.58369	99.1672
4.5595	99.1072
4.53557	99.0759
4.51188	99.0452
4.48845	98.9748
4.46525	98.9001
4.44229	98.8708
4.41957	98.8279
4.39708	98.8044
4.37481	98.7327
4.35277	98.6999
4.33096	98.6775
4.30935	98.6091
4.28797	98.5095
4.26679	98.5452
4.24583	98.5281
4.22506	98.4031
4.2045	98.4436
4.18414	98.385
4.16398	98.363
4.14401	98.3411
4.12423	98.2991
4.10464	98.2283
4.08523	98.1741
4.066	98.1287
4.04696	98.0945
4.02809	97.9978
4.0094	98.0173
3.99088	97.9123
3.97253	97.8484
3.95435	97.8079
3.93634	97.7068
3.91848	97.7209
3.90079	97.676
3.88326	97.6121
3.86589	97.5159
3.84867	97.4011
3.8316	97.3914
3.81468	97.3103
3.79791	97.3113
3.78129	97.1921
3.76482	97.0857
3.74848	97.0281
3.73229	97.0105
3.71624	96.9123
3.70032	96.8669
3.68454	96.7664
3.6689	96.7585
3.65338	96.6785
3.638	96.6819
3.62275	96.5496
3.60762	96.4607
3.59262	96.3928
3.57775	96.3464
3.56299	96.3103
3.54836	96.2175
3.53385	96.2112
3.51945	96.2034
3.50517	96.2195
3.49101	96.0212
3.47696	95.8928
3.46303	95.8166
3.4492	95.7791
3.43549	95.7634
3.42188	95.7541
3.40838	95.5056
3.39499	95.3728
3.38171	95.197
3.36852	95.1389
3.35544	94.9163
3.34246	94.7459
3.32958	94.7327
3.3168	94.6482
3.30411	94.5916
3.29153	94.4763
3.27903	94.3669
3.26664	94.2053
3.25433	94.1404
3.24212	94.0369
3.23	93.887
3.21797	93.8088
3.20603	93.657
3.19418	93.531
3.18241	93.3572
3.17074	93.3533
3.15914	93.2166
3.14763	93.1218
3.13621	92.8787
3.12487	92.7605
3.11361	92.7439
3.10243	92.656
3.09133	92.5759
3.0803	92.5252
3.06936	92.4343
3.0585	92.364
3.04771	92.2771
3.037	92.2029
3.02636	92.0642
3.0158	91.99
3.00531	91.8826
2.99489	91.9109
2.98454	92.0896
2.97427	92.0086
2.96407	92.0935
2.95393	92.1814
2.94387	92.3318
2.93387	92.2576
2.92394	92.2556
2.91408	92.3005
2.90429	92.2742
2.89456	92.3484
2.88489	92.3836
2.87529	92.4109
2.86576	92.4002
2.85628	92.5369
2.84687	92.5945
2.83752	92.7068
2.82823	92.5388
2.81901	92.6482
2.80984	92.7156
2.80073	92.7341
2.79168	92.7185
2.78269	92.8523
2.77376	92.9138
2.76488	92.8552
2.75606	92.8669
2.7473	93.0642
2.73859	93.1775
2.72994	93.2937
2.72134	93.3904
2.7128	93.4373
2.70431	93.3992
2.69587	93.3445
2.68748	93.4353
2.67915	93.4421
2.67087	93.4841
2.66264	93.3406
2.65446	93.2937
2.64633	93.1755
2.63825	93.3289
2.63021	93.1482
2.62223	93.2009
2.6143	93.1287
2.60641	93.1033
2.59857	93.1912
2.59078	93.1052
2.58304	93.0466
2.57534	93.0798
2.56768	93.0193
2.56008	92.8904
2.55251	93.0173
2.54499	92.9021
2.53752	92.824
2.53009	92.9002
2.5227	92.7849
2.51536	92.658
2.50806	92.7595
2.5008	92.8377
2.49358	92.7517
2.4864	92.781
2.47927	92.7029
2.47218	92.6912
2.46512	92.6736
2.45811	92.5623
2.45114	92.5193
2.4442	92.5935
2.43731	92.4861
2.43045	92.3045
2.42363	92.2576
2.41685	92.3826
2.41011	92.3377
2.40341	92.5095
2.39674	92.2673
2.39011	92.281
2.38352	92.1248
2.37696	92.0564
2.37044	92.1404
2.36395	92.0545
2.35751	92.1502
2.35109	92.1267
2.34471	92.1033
2.33836	92.0349
2.33205	91.8787
2.32578	91.7498
2.31953	91.9236
2.31332	91.699
2.30714	91.8455
2.301	91.8904
2.29489	91.699
2.28881	91.6345
2.28276	91.617
2.27675	91.3591
2.27076	91.3084
2.26481	91.238
2.25889	91.3591
2.253	91.4295
2.24714	91.4568
2.24131	91.0623
2.23551	91.0076
2.22974	91.031
2.224	90.8748
2.21829	91.031
2.21261	91.031
2.20696	90.6638
2.20134	90.6248
2.19574	90.9373
2.19018	90.8943
2.18464	90.6287
2.17913	90.363
2.17365	90.3084
2.16819	90.3201
2.16277	90.5857
2.15737	90.0974
2.15199	90.0232
2.14665	89.6599
2.14133	89.742
2.13603	89.867
2.13077	89.5193
2.12552	89.6287
2.12031	89.7381
2.11512	89.3123
2.10995	89.2185
2.10481	89.3279
2.0997	89.4295
2.09461	89.1756
2.08954	89.2654
2.0845	89.0974
2.07948	88.6404
