Name: Olivine (Fo60) (Fe+2,Mg)2SiO4
Type: Mineral
Class: Silicates
Subclass: Nesosilicates (Isolated tetrahedra); (Olivine Group)
Particle Size: 0-60 micrometers.  (Packed powder simulates coarse.)
Sample No.: olivine.6
Owner: JHU
Wavelength Range: IR
Origin: Kiglapait Intrusion, Labrador via Trude King #KI3189
Description: Initially, the specimen was contaminated with
Measurement: Bidirectional reflectance
X Units: Wavelength (micrometers)
Y Units: Reflectance (percent)
wavelength	value
25.0442	7.2514
24.3388	7.373
23.6719	6.166
23.0407	4.5674
22.4422	4.0015
21.8741	3.9294
21.334	3.9538
20.8199	4.9612
20.33	5.7615
19.8627	5.4082
19.4163	6.2395
18.9896	6.7385
18.5812	7.0381
18.19	6.5205
17.815	4.5852
17.4551	3.3118
17.1094	3.2183
16.7772	3.5649
16.4576	3.9172
16.15	3.9922
15.8537	3.2976
15.568	2.3074
15.2925	2.178
15.0265	2.3298
14.7697	2.5188
14.5214	2.7395
14.2814	2.9111
14.0492	3.0933
13.8244	3.2078
13.6067	3.3682
13.3957	3.4419
13.1912	3.542
12.9929	3.5657
12.8004	3.5928
12.6135	3.5796
12.432	3.6047
12.2557	3.6489
12.0843	3.791
11.9176	3.6533
11.7555	3.991
11.5977	4.6404
11.444	5.6951
11.2944	6.5588
11.1487	7.0813
11.0067	7.5984
10.8682	8.1965
10.7332	8.6255
10.6015	7.477
10.473	5.7685
10.3476	7.0237
10.2251	6.8467
10.1056	6.281
9.98873	5.9277
9.87458	5.5827
9.763	5.477
9.65392	5.5078
9.54724	5.47
9.44291	4.9519
9.34082	3.9243
9.24091	2.7664
9.14312	2.0166
9.04739	1.8472
8.95363	1.8684
8.8618	2.196
8.77183	2.4739
8.68368	2.6821
8.59727	2.8259
8.51257	3.0205
8.42951	3.1821
8.34807	3.3433
8.26819	3.5393
8.18981	3.7344
8.11292	3.885
8.03745	3.9795
7.96337	4.0361
7.89064	4.0657
7.81924	4.1055
7.74911	4.1086
7.68023	4.0869
7.61256	4.1037
7.54608	4.1855
7.48074	4.2905
7.41653	4.3818
7.35341	4.4521
7.29136	4.5144
7.23034	4.5849
7.17033	4.6306
7.11132	4.6811
7.05327	4.7502
6.99616	4.8183
6.93996	4.8237
6.88467	4.8105
6.83024	4.886
6.77667	4.9587
6.72393	4.9905
6.67201	4.9963
6.62089	5.0066
6.57054	4.988
6.52095	4.9863
6.4721	4.9709
6.42398	4.9407
6.37657	4.9297
6.32986	4.8926
6.28382	4.8694
6.23845	4.8298
6.19373	4.8027
6.14965	4.7036
6.10619	4.5039
6.06334	4.227
6.02109	4.136
5.97942	4.1975
5.93832	4.2197
5.89778	4.2585
5.8578	4.3105
5.81835	4.345
5.77943	4.3154
5.74103	4.1699
5.70314	4.0022
5.66574	3.9565
5.62883	4.0393
5.5924	4.1611
5.55644	4.219
5.52093	4.2405
5.48588	4.2805
5.45127	4.363
5.41709	4.4407
5.38334	4.4892
5.35	4.5317
5.31708	4.5583
5.28456	4.6155
5.25243	4.6897
5.2207	4.7678
5.18934	4.8379
5.15836	4.8996
5.12775	4.9316
5.09749	4.9626
5.0676	4.9866
5.03805	4.9917
5.00884	5.0412
4.97998	5.1448
4.95144	5.291
4.92322	5.425
4.89533	5.5166
4.86775	5.5774
4.84048	5.6391
4.81351	5.6824
4.78684	5.7317
4.76047	5.7578
4.73439	5.8
4.70859	5.8276
4.68306	5.866
4.65782	5.9067
4.63284	5.9397
4.60814	5.99
4.58369	6.0312
4.5595	6.0696
4.53557	6.1057
4.51188	6.1528
4.48845	6.2004
4.46525	6.2353
4.44229	6.279
4.41957	6.331
4.39708	6.3772
4.37481	6.4248
4.35277	6.4614
4.33096	6.5071
4.30935	6.5498
4.28797	6.5847
4.26679	6.6382
4.24583	6.6907
4.22506	6.7324
4.2045	6.7763
4.18414	6.8164
4.16398	6.8598
4.14401	6.8962
4.12423	6.9289
4.10464	6.966
4.08523	7.0095
4.066	7.0478
4.04696	7.0805
4.02809	7.1199
4.0094	7.1548
3.99088	7.2034
3.97253	7.2361
3.95435	7.2732
3.93634	7.3049
3.91848	7.3462
3.90079	7.3877
3.88326	7.4197
3.86589	7.4414
3.84867	7.4668
3.8316	7.5002
3.81468	7.5351
3.79791	7.5593
3.78129	7.5945
3.76482	7.6203
3.74848	7.6596
3.73229	7.6831
3.71624	7.7117
3.70032	7.7295
3.68454	7.751
3.6689	7.7788
3.65338	7.8125
3.638	7.8218
3.62275	7.8415
3.60762	7.862
3.59262	7.8769
3.57775	7.8813
3.56299	7.8806
3.54836	7.8784
3.53385	7.8503
3.51945	7.7497
3.50517	7.5593
3.49101	7.6658
3.47696	7.706
3.46303	7.7053
3.4492	7.6396
3.43549	7.5303
3.42188	7.3445
3.40838	7.3979
3.39499	7.594
3.38171	7.6299
3.36852	7.6958
3.35544	7.8139
3.34246	7.8474
3.32958	7.8459
3.3168	7.8369
3.30411	7.7749
3.29153	7.8081
3.27903	7.7868
3.26664	7.7436
3.25433	7.7392
3.24212	7.7153
3.23	7.7014
3.21797	7.6711
3.20603	7.6545
3.19418	7.6233
3.18241	7.5788
3.17074	7.5459
3.15914	7.5061
3.14763	7.4707
3.13621	7.4172
3.12487	7.3696
3.11361	7.3332
3.10243	7.279
3.09133	7.2309
3.0803	7.196
3.06936	7.1467
3.0585	7.0876
3.04771	7.0447
3.037	6.9888
3.02636	6.9504
3.0158	6.8938
3.00531	6.854
2.99489	6.8388
2.98454	6.8257
2.97427	6.8215
2.96407	6.8235
2.95393	6.8269
2.94387	6.8244
2.93387	6.841
2.92394	6.8305
2.91408	6.7964
2.90429	6.7666
2.89456	6.7219
2.88489	6.6565
2.87529	6.6189
2.86576	6.5478
2.85628	6.4953
2.84687	6.4697
2.83752	6.4387
2.82823	6.4521
2.81901	6.4531
2.80984	6.466
2.80073	6.4482
2.79168	6.4326
2.78269	6.4128
2.77376	6.428
2.76488	6.447
2.75606	6.4814
2.7473	6.5432
2.73859	6.6015
2.72994	6.7363
2.72134	6.8862
2.7128	7.0801
2.70431	7.696
2.69587	8.3518
2.68748	8.6968
2.67915	8.844
2.67087	8.9136
2.66264	8.9436
2.65446	8.9499
2.64633	8.9568
2.63825	8.9468
2.63021	8.9284
2.62223	8.9468
2.6143	8.9324
2.60641	8.9377
2.59857	8.9494
2.59078	8.9409
2.58304	8.9228
2.57534	8.9077
2.56768	8.9045
2.56008	8.8974
2.55251	8.8757
2.54499	8.8879
2.53752	8.8686
2.53009	8.833
2.5227	8.8515
2.51536	8.8454
2.50806	8.842
2.5008	8.8127
2.49358	8.7986
2.4864	8.82
2.47927	8.7898
2.47218	8.7602
2.46512	8.7571
2.45811	8.7497
2.45114	8.7688
2.4442	8.7329
2.43731	8.748
2.43045	8.7334
2.42363	8.7248
2.41685	8.747
2.41011	8.7458
2.40341	8.751
2.39674	8.7182
2.39011	8.7063
2.38352	8.7112
2.37696	8.686
2.37044	8.6714
2.36395	8.6694
2.35751	8.6665
2.35109	8.6968
2.34471	8.6787
2.33836	8.6531
2.33205	8.6601
2.32578	8.6352
2.31953	8.6513
2.31332	8.6523
2.30714	8.6675
2.301	8.6587
2.29489	8.6496
2.28881	8.6645
2.28276	8.7046
2.27675	8.6885
2.27076	8.7043
2.26481	8.7236
2.25889	8.7112
2.253	8.7282
2.24714	8.7261
2.24131	8.7339
2.23551	8.7529
2.22974	8.718
2.224	8.6972
2.21829	8.7326
2.21261	8.7134
2.20696	8.7011
2.20134	8.7007
2.19574	8.729
2.19018	8.7378
2.18464	8.7153
2.17913	8.6911
2.17365	8.7344
2.16819	8.7178
2.16277	8.7602
2.15737	8.7339
2.15199	8.7136
2.14665	8.7285
2.14133	8.7446
2.13603	8.7837
2.13077	8.8183
2.12552	8.8393
2.12031	8.8574
2.11512	8.853
2.10995	8.8054
2.10481	8.831
2.0997	8.8491
2.09461	8.855
2.08954	8.9167
2.0845	8.9121
2.07948	8.8628
