Name: Antigorite (Mg, Fe+2)3 Si2O5(OH)4
Type: Mineral
Class: Silicates
Subclass: Phyllosilicates  (Sheet silicates)  (Serpentine/Kaolin Group)
Particle Size: Coarse (74-250 Micrometers)
Sample No.: antigorite.1
Owner: JHU.
Wavelength Range: IR
Origin: Sample from Kalsertal, Tyrol, Austria, via the Smithsonian
Description: The sample was a large green single crystal.  It appeared
Measurement: Bidirectional reflectance
X Units: Wavelength (micrometers)
Y Units: Reflectance (percent)
wavelength	value
25.044	7.3603
24.339	6.9775
23.672	7.2392
23.041	8.7529
22.442	9.7339
21.874	10.5918
21.334	11.2426
20.82	11.4719
20.33	11.1103
19.863	9.7915
19.416	8.751
18.99	5.7397
18.581	3.583
18.19	3.3965
17.815	3.6223
17.455	3.5972
17.109	3.3811
16.777	3.6726
16.458	4.2839
16.15	5.0251
15.854	5.5959
15.568	6.1052
15.292	6.4509
15.027	6.5542
14.77	6.1709
14.521	4.8911
14.281	3.2612
14.049	2.4067
13.824	1.793
13.607	1.4817
13.396	1.4094
13.191	1.5056
12.993	1.6143
12.8	1.6785
12.614	1.7673
12.432	1.8647
12.256	1.9519
12.084	2.0288
11.918	2.1489
11.755	2.2808
11.598	2.3997
11.444	2.5276
11.294	2.7143
11.149	2.8647
11.007	3.0872
10.868	3.3679
10.733	3.7707
10.602	4.3721
10.473	5.0818
10.348	5.718
10.225	6.2251
10.106	7.0112
9.989	7.6689
9.875	8.4607
9.763	9.2512
9.654	10.5041
9.547	11.2802
9.443	9.9311
9.341	8.0046
9.241	7.1926
9.143	7.207
9.047	6.9267
8.954	5.2434
8.862	3.7373
8.772	2.1186
8.684	0.7173
8.597	0.4231
8.513	0.5168
8.43	0.5764
8.348	0.6484
8.268	0.6592
8.19	0.7261
8.113	0.8262
8.037	0.8923
7.963	0.9678
7.891	1.0225
7.819	1.0725
7.749	1.1326
7.68	1.1885
7.613	1.2227
7.546	1.2524
7.481	1.2817
7.417	1.3203
7.353	1.363
7.291	1.3987
7.23	1.4443
7.17	1.4917
7.111	1.5295
7.053	1.5588
6.996	1.5945
6.94	1.6272
6.885	1.6577
6.83	1.6733
6.777	1.7063
6.724	1.7261
6.672	1.7537
6.621	1.7737
6.571	1.7832
6.521	1.7659
6.472	1.7175
6.424	1.6526
6.377	1.5991
6.33	1.5681
6.284	1.5601
6.238	1.5615
6.194	1.5464
6.15	1.5398
6.106	1.5571
6.063	1.6216
6.021	1.696
5.979	1.7617
5.938	1.7583
5.898	1.7339
5.858	1.8159
5.818	1.8752
5.779	1.9541
5.741	2.0129
5.703	2.0552
5.666	2.0945
5.629	2.1467
5.592	2.2278
5.556	2.3091
5.521	2.3889
5.486	2.4487
5.451	2.5129
5.417	2.5679
5.383	2.6338
5.35	2.7126
5.317	2.8025
5.285	2.9087
5.252	3.064
5.221	3.2178
5.189	3.3579
5.158	3.4409
5.128	3.4763
5.097	3.5051
5.068	3.5271
5.038	3.5498
5.009	3.6301
4.98	3.78
4.951	3.9289
4.923	3.9812
4.895	4.0747
4.868	4.2349
4.84	4.4082
4.814	4.509
4.787	4.5505
4.76	4.6431
4.734	4.8398
4.709	5.0879
4.683	5.3171
4.658	5.4553
4.633	5.5495
4.608	5.6355
4.584	5.7273
4.56	5.8347
4.536	5.967
4.512	6.0586
4.488	6.1123
4.465	6.1496
4.442	6.1777
4.42	6.2095
4.397	6.2285
4.375	6.2471
4.353	6.26
4.331	6.269
4.309	6.2886
4.288	6.3152
4.267	6.3491
4.246	6.3804
4.225	6.414
4.205	6.4585
4.184	6.5083
4.164	6.5749
4.144	6.6299
4.124	6.6936
4.105	6.7544
4.085	6.8161
4.066	6.8826
4.047	6.9316
4.028	6.9763
4.009	7.0036
3.991	7.0283
3.973	7.0295
3.954	7.0234
3.936	7.022
3.918	6.9917
3.901	6.9656
3.883	6.9221
3.866	6.8552
3.849	6.7888
3.832	6.7182
3.815	6.6391
3.798	6.5547
3.781	6.4897
3.765	6.4189
3.748	6.3274
3.732	6.2268
3.716	6.0759
3.7	6.0207
3.685	6.0229
3.669	5.9741
3.653	5.9292
3.638	5.8537
3.623	5.7873
3.608	5.717
3.593	5.646
3.578	5.572
3.563	5.4704
3.548	5.365
3.534	5.2226
3.519	5.0344
3.505	4.8611
3.491	4.7908
3.477	4.7153
3.463	4.6714
3.449	4.561
3.435	4.4182
3.422	4.2217
3.408	4.1484
3.395	4.1933
3.382	4.1047
3.369	4.0176
3.355	3.9014
3.342	3.9363
3.33	3.9058
3.317	3.8354
3.304	3.7646
3.292	3.7117
3.279	3.6526
3.267	3.5793
3.254	3.4995
3.242	3.4289
3.23	3.4111
3.218	3.3833
3.206	3.2908
3.194	3.2004
3.182	3.0915
3.171	2.9895
3.159	2.866
3.148	2.7617
3.136	2.6445
3.125	2.5613
3.114	2.4912
3.102	2.4204
3.091	2.3525
3.08	2.269
3.069	2.1999
3.058	2.1164
3.048	2.0488
3.037	1.9675
3.026	1.8987
3.016	1.8081
3.005	1.7195
2.995	1.6655
2.985	1.5906
2.974	1.5261
2.964	1.4783
2.954	1.4155
2.944	1.3462
2.934	1.304
2.924	1.2788
2.914	1.2356
2.904	1.2119
2.895	1.1958
2.885	1.1785
2.875	1.1631
2.866	1.1492
2.856	1.1409
2.847	1.1111
2.838	1.0715
2.828	1.03
2.819	1.0095
2.81	0.9883
2.801	0.9656
2.792	0.9565
2.783	0.9631
2.774	0.9412
2.765	0.9316
2.756	0.9094
2.747	0.8745
2.739	0.8767
2.73	0.8501
2.721	0.8267
2.713	0.7883
2.704	0.8215
2.696	1.115
2.687	1.977
2.679	3.5976
2.671	4.529
2.663	4.9084
2.654	5.2329
2.646	5.6726
2.638	5.9079
2.63	5.9556
2.622	5.9202
2.614	5.813
2.606	5.698
2.599	5.5034
2.591	5.3005
2.583	5.0683
2.575	4.8218
2.568	4.6894
2.56	4.7532
2.553	4.8628
2.545	4.9475
2.538	4.8804
2.53	4.6172
2.523	4.3545
2.515	4.2964
2.508	4.4226
2.501	4.5391
2.494	4.6401
2.486	4.812
2.479	5.1138
2.472	5.2485
2.465	5.2165
2.458	4.9636
2.451	4.7803
2.444	4.8887
2.437	5.0996
2.43	5.126
2.424	5.1206
2.417	5.2327
2.41	5.3887
2.403	5.5381
2.397	5.6348
2.39	5.6719
2.384	5.5185
2.377	5.6909
2.37	6.1294
2.364	6.2583
2.358	6.1269
2.351	5.7436
2.345	4.958
2.338	4.1411
2.332	3.6641
2.326	3.4043
2.32	3.5835
2.313	4.0249
2.307	4.5405
2.301	4.8757
2.295	5.1445
2.289	5.4277
2.283	5.7246
2.277	5.8867
2.271	6.1335
2.265	6.603
2.259	6.9497
2.253	7.0156
2.247	7.1604
2.241	7.386
2.236	7.8376
2.23	8.3464
2.224	8.7463
2.218	8.9519
2.213	9.0959
2.207	9.1277
2.201	9.1706
2.196	9.1977
2.19	9.2304
2.185	9.2239
2.179	9.2385
2.174	9.2705
2.168	9.2138
2.163	9.1767
2.157	9.0825
2.152	8.9826
2.147	8.8996
2.141	8.7768
2.136	8.7178
2.131	8.7004
2.126	8.7798
2.12	8.7934
2.115	8.7344
2.11	8.7178
2.105	8.688
2.1	8.7424
2.095	8.8359
2.09	8.8999
2.085	9.0757
2.079	9.2217
