Name: Diopside CaMgSi2O6
Type: Mineral
Class: Silicates
Subclass: Inosilicates (Chain Silicates) (Pyroxene Group)
Particle Size: Coarse  (74-250 Micrometers)
Sample No.: diopside.2
Owner: JHU
Wavelength Range: IR
Origin: Sample from DeKalb, New York via the Smithsonian (sample
Description: Most of the 13 mm x 10 mm x 6 mm sample was clean,
Measurement: Bidirectional reflectance
X Units: Wavelength (micrometers)
Y Units: Reflectance (percent)
wavelength	value
25.0442	6.8486
24.3388	6.9292
23.6719	5.2847
23.0407	6.2407
22.4422	5.2534
21.8741	5.8276
21.334	6.5491
20.8199	7.031
20.33	6.8977
19.8627	7.8916
19.4163	8.8266
18.9896	7.1526
18.5812	6.7449
18.19	7.2922
17.815	8.2495
17.4551	8.0901
17.1094	5.9265
16.7772	3.8784
16.4576	1.9443
16.15	1.2439
15.8537	1.6726
15.568	2.0727
15.2925	1.2261
15.0265	1.5029
14.7697	1.7263
14.5214	1.5532
14.2814	1.6753
14.0492	1.8401
13.8244	2.001
13.6067	2.1262
13.3957	2.2522
13.1912	2.324
12.9929	2.4514
12.8004	2.5845
12.6135	2.6943
12.432	2.8186
12.2557	2.9827
12.0843	3.2451
11.9176	3.7078
11.7555	4.6396
11.5977	5.5954
11.444	6.0134
11.2944	6.3376
11.1487	6.6562
11.0067	7.0898
10.8682	7.8752
10.7332	7.019
10.6015	7.073
10.473	8.0158
10.3476	9.5903
10.2251	7.7685
10.1056	4.1792
9.98873	3.3564
9.87458	4.219
9.763	4.4499
9.65392	3.9419
9.54724	3.6204
9.44291	4.353
9.34082	5.8506
9.24091	6.4673
9.14312	6.9912
9.04739	7.3262
8.95363	7.5014
8.8618	7.1755
8.77183	6.707
8.68368	5.0976
8.59727	3.6943
8.51257	2.4158
8.42951	1.25
8.34807	0.8389
8.26819	0.9075
8.18981	1.0073
8.11292	1.0696
8.03745	1.1562
7.96337	1.2681
7.89064	1.3865
7.81924	1.4832
7.74911	1.6572
7.68023	1.8171
7.61256	1.9277
7.54608	1.9858
7.48074	2.1248
7.41653	2.2402
7.35341	2.2805
7.29136	2.2546
7.23034	2.3061
7.17033	2.4502
7.11132	2.614
7.05327	2.9216
6.99616	3.1101
6.93996	3.218
6.88467	3.2532
6.83024	3.0376
6.77667	2.845
6.72393	2.7029
6.67201	2.5166
6.62089	2.4726
6.57054	2.3022
6.52095	2.033
6.4721	1.9394
6.42398	1.9988
6.37657	2.238
6.32986	2.4438
6.28382	2.4917
6.23845	2.6399
6.19373	2.8088
6.14965	2.7654
6.10619	2.5496
6.06334	2.7385
6.02109	2.9695
5.97942	3.4316
5.93832	4.3572
5.89778	5.3432
5.8578	5.4966
5.81835	5.7707
5.77943	6.2803
5.74103	6.6765
5.70314	7.0229
5.66574	7.322
5.62883	7.4617
5.5924	7.4927
5.55644	7.4309
5.52093	7.216
5.48588	6.8042
5.45127	6.1489
5.41709	5.3567
5.38334	4.9753
5.35	4.6977
5.31708	4.6011
5.28456	4.4231
5.25243	4.4802
5.2207	4.6106
5.18934	4.4416
5.15836	4.1824
5.12775	3.8415
5.09749	3.355
5.0676	3.1055
5.03805	3.3494
5.00884	3.8371
4.97998	4.0076
4.95144	4.0283
4.92322	4.1291
4.89533	4.2129
4.86775	4.3379
4.84048	4.6968
4.81351	5.102
4.78684	5.4619
4.76047	5.5708
4.73439	5.7541
4.70859	6.3674
4.68306	6.9765
4.65782	7.2876
4.63284	7.6946
4.60814	8.1284
4.58369	8.665
4.5595	9.2556
4.53557	9.7453
4.51188	10.446
4.48845	10.8198
4.46525	11.0127
4.44229	11.1904
4.41957	11.3362
4.39708	11.4646
4.37481	11.5945
4.35277	11.718
4.33096	11.8349
4.30935	11.917
4.28797	11.9963
4.26679	12.1118
4.24583	12.2107
4.22506	12.2702
4.2045	12.3315
4.18414	12.3801
4.16398	12.4279
4.14401	12.4673
4.12423	12.5066
4.10464	12.53
4.08523	12.5705
4.066	12.5901
4.04696	12.601
4.02809	12.5871
4.0094	12.6006
3.99088	12.5869
3.97253	12.6186
3.95435	12.6491
3.93634	12.7024
3.91848	12.7334
3.90079	12.7451
3.88326	12.758
3.86589	12.7536
3.84867	12.7588
3.8316	12.7907
3.81468	12.7949
3.79791	12.8039
3.78129	12.8069
3.76482	12.7959
3.74848	12.7981
3.73229	12.8105
3.71624	12.8125
3.70032	12.822
3.68454	12.8257
3.6689	12.8144
3.65338	12.8105
3.638	12.791
3.62275	12.7678
3.60762	12.7597
3.59262	12.7448
3.57775	12.7336
3.56299	12.7212
3.54836	12.6987
3.53385	12.6499
3.51945	12.5739
3.50517	12.3899
3.49101	12.4174
3.47696	12.3742
3.46303	12.3996
3.4492	12.3332
3.43549	12.259
3.42188	12.0808
3.40838	12.0852
3.39499	12.2197
3.38171	12.1987
3.36852	12.2466
3.35544	12.3913
3.34246	12.4611
3.32958	12.4878
3.3168	12.5039
3.30411	12.5185
3.29153	12.5454
3.27903	12.5356
3.26664	12.5471
3.25433	12.5266
3.24212	12.5114
3.23	12.4941
3.21797	12.4707
3.20603	12.4389
3.19418	12.4089
3.18241	12.3984
3.17074	12.3933
3.15914	12.3691
3.14763	12.352
3.13621	12.2973
3.12487	12.2639
3.11361	12.2509
3.10243	12.2304
3.09133	12.2085
3.0803	12.188
3.06936	12.1709
3.0585	12.1499
3.04771	12.1313
3.037	12.0984
3.02636	12.0681
3.0158	12.0188
3.00531	11.9792
2.99489	11.9487
2.98454	11.8711
2.97427	11.8008
2.96407	11.7602
2.95393	11.7873
2.94387	11.8532
2.93387	11.8847
2.92394	11.8684
2.91408	11.8591
2.90429	11.8899
2.89456	11.9052
2.88489	11.917
2.87529	11.9192
2.86576	11.9619
2.85628	12.0022
2.84687	12.0158
2.83752	12.0373
2.82823	12.0434
2.81901	12.0547
2.80984	12.1049
2.80073	12.1311
2.79168	12.1389
2.78269	12.1118
2.77376	12.082
2.76488	12.0766
2.75606	12.0822
2.7473	12.0822
2.73859	12.2202
2.72994	12.3491
2.72134	11.8681
2.7128	12.4655
2.70431	12.6801
2.69587	12.7541
2.68748	12.7976
2.67915	12.8852
2.67087	12.9504
2.66264	12.9008
2.65446	12.8921
2.64633	12.8894
2.63825	12.873
2.63021	12.8586
2.62223	12.8254
2.6143	12.8147
2.60641	12.8051
2.59857	12.7751
2.59078	12.7749
2.58304	12.7524
2.57534	12.7373
2.56768	12.7111
2.56008	12.6948
2.55251	12.6679
2.54499	12.6223
2.53752	12.6035
2.53009	12.5935
2.5227	12.5686
2.51536	12.4868
2.50806	12.4831
2.5008	12.4875
2.49358	12.4521
2.4864	12.3852
2.47927	12.3608
2.47218	12.3398
2.46512	12.2534
2.45811	12.2466
2.45114	12.2685
2.4442	12.2177
2.43731	12.1777
2.43045	12.1508
2.42363	12.1347
2.41685	12.1181
2.41011	12.0966
2.40341	12.0937
2.39674	12.0454
2.39011	12.0363
2.38352	12.0083
2.37696	11.9892
2.37044	12.0124
2.36395	11.9619
2.35751	11.9297
2.35109	11.945
2.34471	11.9345
2.33836	11.9057
2.33205	11.8867
2.32578	11.8828
2.31953	11.8691
2.31332	11.8144
2.30714	11.834
2.301	11.8618
2.29489	11.855
2.28881	11.8335
2.28276	11.853
2.27675	11.8132
2.27076	11.8195
2.26481	11.8169
2.25889	11.842
2.253	11.8237
2.24714	11.8091
2.24131	11.7905
2.23551	11.8086
2.22974	11.8432
2.224	11.7758
2.21829	11.8305
2.21261	11.802
2.20696	11.8042
2.20134	11.8161
2.19574	11.812
2.19018	11.8513
2.18464	11.81
2.17913	11.8296
2.17365	11.851
2.16819	11.8696
2.16277	11.8877
2.15737	11.8498
2.15199	11.8618
2.14665	11.8137
2.14133	11.8508
2.13603	11.8589
2.13077	11.8413
2.12552	11.8772
2.12031	11.8654
2.11512	11.916
2.10995	11.8869
2.10481	11.8955
2.0997	11.958
2.09461	11.937
2.08954	11.9477
2.0845	11.9184
2.07948	11.9673
