Name: Sepiolite Mg4Si6O15(OH)2.6H2)
Type: Mineral
Class: Silicates
Subclass: Phyllosilicates (Sheet silicates); Sepiolite Group
Particle Size: 0-2 micrometers.  (Packed powder simulates coarse.)
Sample No.: sepiolite.1
Owner: JHU
Wavelength Range: IR
Origin: Two Crows, Nev., USA via Hunt and Salisbury Collection #CMS
Description: White, earthy clay.  Sepiolite plus a small amount of
Measurement: Bidirectional reflectance
X Units: Wavelength (micrometers)
Y Units: Reflectance (percent)
wavelength	value
25.0442	10.5581
24.3388	11.0197
23.6719	11.8689
23.0407	12.3369
22.4422	12.667
21.8741	12.0429
21.334	14.4851
20.8199	16.0705
20.33	14.7497
19.8627	14.5876
19.4163	15.1894
18.9896	15.3623
18.5812	15.2595
18.19	13.8523
17.815	11.3733
17.4551	7.8147
17.1094	4.4319
16.7772	3.407
16.4576	3.3086
16.15	3.4175
15.8537	4.0166
15.568	4.6804
15.2925	5.1792
15.0265	4.2334
14.7697	4.1401
14.5214	4.4094
14.2814	3.5947
14.0492	3.6406
13.8244	4.0268
13.6067	4.3459
13.3957	4.7988
13.1912	5.093
12.9929	5.1169
12.8004	4.873
12.6135	5.0163
12.432	5.5078
12.2557	5.9905
12.0843	6.3088
11.9176	6.5105
11.7555	6.3647
11.5977	6.1369
11.444	6.3096
11.2944	6.6086
11.1487	7.0364
11.0067	7.2468
10.8682	7.3616
10.7332	7.5603
10.6015	7.7554
10.473	7.9179
10.3476	8.4878
10.2251	9.5039
10.1056	8.8327
9.98873	7.457
9.87458	8.5469
9.763	10.4714
9.65392	13.0932
9.54724	13.2995
9.44291	12.7194
9.34082	10.3061
9.24091	11.1281
9.14312	11.2458
9.04739	9.4035
8.95363	11.6054
8.8618	10.4853
8.77183	10.8188
8.68368	9.3313
8.59727	6.1216
8.51257	4.0264
8.42951	3.6902
8.34807	3.7273
8.26819	3.7229
8.18981	2.2537
8.11292	1.1887
8.03745	1.2278
7.96337	1.4414
7.89064	1.6985
7.81924	2.0027
7.74911	2.2751
7.68023	2.5447
7.61256	2.7878
7.54608	2.938
7.48074	3.0066
7.41653	3.0083
7.35341	3.0134
7.29136	3.0862
7.23034	3.2746
7.17033	3.4751
7.11132	3.6289
7.05327	3.8159
6.99616	4.1006
6.93996	4.4079
6.88467	4.7849
6.83024	5.2817
6.77667	5.7529
6.72393	6.1201
6.67201	6.3281
6.62089	6.4206
6.57054	6.4702
6.52095	6.6477
6.4721	6.7131
6.42398	6.646
6.37657	6.4389
6.32986	5.957
6.28382	5.0818
6.23845	3.8269
6.19373	2.9224
6.14965	2.5854
6.10619	2.896
6.06334	3.081
6.02109	3.1108
5.97942	3.6147
5.93832	4.384
5.89778	5.2036
5.8578	5.8943
5.81835	6.2742
5.77943	6.6474
5.74103	7.0469
5.70314	7.2898
5.66574	7.4277
5.62883	7.4468
5.5924	7.3157
5.55644	7.3081
5.52093	7.5444
5.48588	7.8235
5.45127	8.165
5.41709	8.5036
5.38334	8.6684
5.35	8.6152
5.31708	8.6343
5.28456	8.7986
5.25243	8.9848
5.2207	9.0698
5.18934	9.0139
5.15836	9.0652
5.12775	9.3496
5.09749	9.7263
5.0676	10.1826
5.03805	10.6428
5.00884	10.9333
4.97998	11.0659
4.95144	11.1577
4.92322	11.1643
4.89533	11.0405
4.86775	10.9533
4.84048	10.9426
4.81351	10.9841
4.78684	10.9585
4.76047	10.7759
4.73439	10.5256
4.70859	10.5932
4.68306	10.7707
4.65782	11.011
4.63284	11.1313
4.60814	11.2583
4.58369	11.3703
4.5595	11.4397
4.53557	11.5647
4.51188	11.7497
4.48845	11.9607
4.46525	12.1252
4.44229	12.2795
4.41957	12.468
4.39708	12.6797
4.37481	12.9082
4.35277	13.1403
4.33096	13.4155
4.30935	13.7014
4.28797	13.989
4.26679	14.2561
4.24583	14.4834
4.22506	14.6711
4.2045	14.8315
4.18414	14.9658
4.16398	15.0949
4.14401	15.2307
4.12423	15.3779
4.10464	15.499
4.08523	15.653
4.066	15.7773
4.04696	15.9365
4.02809	16.0805
4.0094	16.2175
3.99088	16.3286
3.97253	16.4106
3.95435	16.5127
3.93634	16.5959
3.91848	16.6784
3.90079	16.7233
3.88326	16.7324
3.86589	16.7243
3.84867	16.7439
3.8316	16.7253
3.81468	16.7326
3.79791	16.7387
3.78129	16.7395
3.76482	16.7348
3.74848	16.6892
3.73229	16.6569
3.71624	16.6162
3.70032	16.5354
3.68454	16.4397
3.6689	16.4123
3.65338	16.3371
3.638	16.2348
3.62275	16.1167
3.60762	15.9997
3.59262	15.8657
3.57775	15.7114
3.56299	15.6045
3.54836	15.458
3.53385	15.2939
3.51945	15.1128
3.50517	14.821
3.49101	14.7285
3.47696	14.5276
3.46303	14.322
3.4492	14.093
3.43549	13.8488
3.42188	13.5254
3.40838	13.1291
3.39499	13.0522
3.38171	12.7431
3.36852	12.507
3.35544	12.1609
3.34246	11.8235
3.32958	11.5166
3.3168	11.1653
3.30411	10.7983
3.29153	10.5073
3.27903	10.1877
3.26664	9.8659
3.25433	9.5014
3.24212	9.1218
3.23	8.7322
3.21797	8.394
3.20603	8.0556
3.19418	7.708
3.18241	7.3623
3.17074	7.02
3.15914	6.6277
3.14763	6.2351
3.13621	5.8262
3.12487	5.4294
3.11361	5.1753
3.10243	5.0564
3.09133	4.8645
3.0803	4.6797
3.06936	4.5369
3.0585	4.438
3.04771	4.3625
3.037	4.3093
3.02636	4.1931
3.0158	4.0547
3.00531	3.928
2.99489	3.8276
2.98454	3.7239
2.97427	3.6172
2.96407	3.5246
2.95393	3.4455
2.94387	3.3743
2.93387	3.3176
2.92394	3.2703
2.91408	3.2056
2.90429	3.1379
2.89456	3.0596
2.88489	2.9502
2.87529	2.8313
2.86576	2.6631
2.85628	2.4993
2.84687	2.3474
2.83752	2.2239
2.82823	2.1018
2.81901	2.0437
2.80984	2.0117
2.80073	2.0295
2.79168	2.0972
2.78269	2.1365
2.77376	2.1226
2.76488	2.0974
2.75606	2.1084
2.7473	2.2956
2.73859	2.8101
2.72994	3.5359
2.72134	3.1785
2.7128	3.4846
2.70431	5.6592
2.69587	6.8296
2.68748	4.4604
2.67915	9.7114
2.67087	10.6736
2.66264	11.5337
2.65446	12.1401
2.64633	12.6303
2.63825	12.9995
2.63021	13.2368
2.62223	13.4853
2.6143	13.6716
2.60641	13.7566
2.59857	13.8925
2.59078	13.9199
2.58304	13.8833
2.57534	13.8852
2.56768	13.8593
2.56008	13.7873
2.55251	13.6958
2.54499	13.6833
2.53752	13.6086
2.53009	13.5539
2.5227	13.5415
2.51536	13.5456
2.50806	13.6118
2.5008	13.6792
2.49358	13.748
2.4864	13.7964
2.47927	13.8706
2.47218	13.914
2.46512	13.8737
2.45811	13.935
2.45114	14.0249
2.4442	14.0529
2.43731	14.1469
2.43045	14.2605
2.42363	14.3813
2.41685	14.5351
2.41011	14.7631
2.40341	14.9121
2.39674	14.7851
2.39011	14.7846
2.38352	15.1591
2.37696	15.6777
2.37044	16
2.36395	16.2578
2.35751	16.497
2.35109	16.7817
2.34471	16.9487
2.33836	17.0551
2.33205	17.0522
2.32578	16.8271
2.31953	16.3767
2.31332	15.2087
2.30714	15.4255
2.301	16.1626
2.29489	16.3625
2.28881	16.5236
2.28276	17.0131
2.27675	17.4475
2.27076	17.5991
2.26481	17.7658
2.25889	17.8701
2.253	17.9384
2.24714	18.0534
2.24131	18.0256
2.23551	18.0449
2.22974	18.0227
2.224	18.06
2.21829	18.1826
2.21261	18.1379
2.20696	18.1772
2.20134	18.2219
2.19574	18.1601
2.19018	17.7944
2.18464	17.9543
2.17913	18.1845
2.17365	18.3769
2.16819	18.5634
2.16277	18.6359
2.15737	18.6616
2.15199	18.7114
2.14665	18.7788
2.14133	18.8291
2.13603	18.8847
2.13077	18.8359
2.12552	18.9458
2.12031	19.0336
2.11512	19.0363
2.10995	19.0849
2.10481	19.0722
2.0997	19.1269
2.09461	19.2509
2.08954	19.2607
2.0845	19.2783
2.07948	19.2951
