Name: Pectolite NaCa2Si308(OH)
Type: Mineral
Class: Silicates
Subclass: Inosilicates (Chain Silicates); (Pyrexenoid Group)
Particle Size: Coarse  (75 - 250  Micrometers)
Sample No.: pectol.2
Owner: JHU
Wavelength Range: IR
Origin: Thedford, Ontario, Canada via the Smithsonian (sample no.
Description: Sample consisted of a small (1 mm x 1 mm x 1 cm ) and
Measurement: Bidirectional reflectance
X Units: Wavelength (micrometers)
Y Units: Reflectance (percent)
wavelength	value
25.0442	4.0779
24.3388	4.4878
23.6719	4.4541
23.0407	5.2317
22.4422	6.6335
21.8741	7.4724
21.334	8.1194
20.8199	8.7903
20.33	8.4558
19.8627	7.4299
19.4163	5.4277
18.9896	3.73
18.5812	3.3406
18.19	3.0559
17.815	2.5588
17.4551	2.3425
17.1094	2.3872
16.7772	2.5437
16.4576	2.7092
16.15	2.8352
15.8537	3.1201
15.568	3.8401
15.2925	2.9268
15.0265	3.6133
14.7697	5.207
14.5214	3.3179
14.2814	2.2881
14.0492	2.2551
13.8244	2.5381
13.6067	2.7122
13.3957	2.8618
13.1912	2.9858
12.9929	3.0369
12.8004	3.0898
12.6135	3.093
12.432	3.1252
12.2557	3.1226
12.0843	3.114
11.9176	3.0486
11.7555	3.0105
11.5977	3.0845
11.444	3.3691
11.2944	3.9211
11.1487	5.1409
11.0067	6.6941
10.8682	7.697
10.7332	8.6772
10.6015	7.0825
10.473	7.2392
10.3476	7.4302
10.2251	5.9829
10.1056	5.6501
9.98873	4.1562
9.87458	3.3655
9.763	4.54
9.65392	6.1238
9.54724	7.4118
9.44291	8.0574
9.34082	8.6294
9.24091	8.8598
9.14312	8.676
9.04739	7.8142
8.95363	5.6997
8.8618	3.5913
8.77183	2.1335
8.68368	1.3081
8.59727	0.8708
8.51257	0.6819
8.42951	0.6726
8.34807	0.7742
8.26819	0.9136
8.18981	1.0334
8.11292	1.1392
8.03745	1.2283
7.96337	1.2839
7.89064	1.3389
7.81924	1.3701
7.74911	1.4026
7.68023	1.4287
7.61256	1.446
7.54608	1.4438
7.48074	1.4197
7.41653	1.3686
7.35341	1.3032
7.29136	1.2358
7.23034	1.2046
7.17033	1.175
7.11132	1.064
7.05327	1.1228
6.99616	1.3076
6.93996	1.4885
6.88467	1.6184
6.83024	1.696
6.77667	1.7331
6.72393	1.8015
6.67201	1.9155
6.62089	2.0207
6.57054	2.1113
6.52095	2.199
6.4721	2.198
6.42398	2.1479
6.37657	2.1848
6.32986	2.1699
6.28382	2.1765
6.23845	2.1658
6.19373	2.1179
6.14965	2.175
6.10619	2.2822
6.06334	2.4333
6.02109	2.5537
5.97942	2.6121
5.93832	2.5808
5.89778	2.6467
5.8578	2.7505
5.81835	2.7856
5.77943	2.8542
5.74103	2.8752
5.70314	2.9155
5.66574	2.9573
5.62883	2.9553
5.5924	2.9255
5.55644	2.8733
5.52093	2.8142
5.48588	2.7561
5.45127	2.7222
5.41709	2.6728
5.38334	2.6714
5.35	2.6587
5.31708	2.6262
5.28456	2.53
5.25243	2.4497
5.2207	2.436
5.18934	2.4807
5.15836	2.5539
5.12775	2.623
5.09749	2.6589
5.0676	2.6611
5.03805	2.719
5.00884	2.678
4.97998	2.6758
4.95144	2.7234
4.92322	2.8418
4.89533	2.9841
4.86775	3.1003
4.84048	3.1726
4.81351	3.2344
4.78684	3.2673
4.76047	3.2861
4.73439	3.335
4.70859	3.4018
4.68306	3.4438
4.65782	3.477
4.63284	3.5005
4.60814	3.5234
4.58369	3.5351
4.5595	3.5391
4.53557	3.5456
4.51188	3.5579
4.48845	3.5488
4.46525	3.5474
4.44229	3.5388
4.41957	3.54
4.39708	3.529
4.37481	3.5349
4.35277	3.5361
4.33096	3.5513
4.30935	3.5476
4.28797	3.552
4.26679	3.5466
4.24583	3.5496
4.22506	3.5452
4.2045	3.5515
4.18414	3.5478
4.16398	3.5618
4.14401	3.563
4.12423	3.5727
4.10464	3.5908
4.08523	3.5945
4.066	3.6125
4.04696	3.6155
4.02809	3.6262
4.0094	3.6313
3.99088	3.6338
3.97253	3.6384
3.95435	3.6514
3.93634	3.6496
3.91848	3.6614
3.90079	3.686
3.88326	3.6931
3.86589	3.709
3.84867	3.7224
3.8316	3.7324
3.81468	3.7397
3.79791	3.759
3.78129	3.7725
3.76482	3.7815
3.74848	3.782
3.73229	3.78
3.71624	3.7783
3.70032	3.7712
3.68454	3.7666
3.6689	3.7478
3.65338	3.7427
3.638	3.719
3.62275	3.6968
3.60762	3.6645
3.59262	3.6333
3.57775	3.6155
3.56299	3.5896
3.54836	3.5908
3.53385	3.5986
3.51945	3.6033
3.50517	3.6247
3.49101	3.6423
3.47696	3.6645
3.46303	3.6885
3.4492	3.7082
3.43549	3.7422
3.42188	3.7571
3.40838	3.7837
3.39499	3.8142
3.38171	3.8415
3.36852	3.8721
3.35544	3.8879
3.34246	3.926
3.32958	3.9492
3.3168	3.9768
3.30411	4.0015
3.29153	4.0381
3.27903	4.0708
3.26664	4.0915
3.25433	4.1128
3.24212	4.1492
3.23	4.1665
3.21797	4.2002
3.20603	4.2378
3.19418	4.2698
3.18241	4.3242
3.17074	4.3479
3.15914	4.3838
3.14763	4.4228
3.13621	4.4499
3.12487	4.5012
3.11361	4.5271
3.10243	4.5774
3.09133	4.605
3.0803	4.6562
3.06936	4.699
3.0585	4.7314
3.04771	4.7624
3.037	4.8315
3.02636	4.8655
3.0158	4.9153
3.00531	4.9248
2.99489	4.9748
2.98454	5.0122
2.97427	5.0603
2.96407	5.0947
2.95393	5.1135
2.94387	5.1633
2.93387	5.1933
2.92394	5.2278
2.91408	5.2773
2.90429	5.3193
2.89456	5.3403
2.88489	5.3633
2.87529	5.4075
2.86576	5.4402
2.85628	5.4822
2.84687	5.5046
2.83752	5.5525
2.82823	5.5825
2.81901	5.6118
2.80984	5.6584
2.80073	5.6692
2.79168	5.6965
2.78269	5.7231
2.77376	5.7244
2.76488	5.7329
2.75606	5.7187
2.7473	5.7847
2.73859	5.7644
2.72994	5.8296
2.72134	5.7739
2.7128	5.8347
2.70431	5.8945
2.69587	5.9114
2.68748	5.959
2.67915	5.9592
2.67087	5.9734
2.66264	6.0559
2.65446	6.1174
2.64633	6.1643
2.63825	6.1684
2.63021	6.1946
2.62223	6.2583
2.6143	6.2839
2.60641	6.2861
2.59857	6.3518
2.59078	6.3935
2.58304	6.3879
2.57534	6.4536
2.56768	6.467
2.56008	6.4682
2.55251	6.4878
2.54499	6.518
2.53752	6.5481
2.53009	6.5371
2.5227	6.5388
2.51536	6.5625
2.50806	6.5588
2.5008	6.572
2.49358	6.5539
2.4864	6.5451
2.47927	6.5376
2.47218	6.5659
2.46512	6.5361
2.45811	6.5371
2.45114	6.5542
2.4442	6.5339
2.43731	6.5268
2.43045	6.5703
2.42363	6.5198
2.41685	6.5654
2.41011	6.5586
2.40341	6.5801
2.39674	6.5793
2.39011	6.5813
2.38352	6.6062
2.37696	6.6111
2.37044	6.6433
2.36395	6.6697
2.35751	6.675
2.35109	6.699
2.34471	6.7214
2.33836	6.699
2.33205	6.7417
2.32578	6.7888
2.31953	6.8005
2.31332	6.831
2.30714	6.8894
2.301	6.9158
2.29489	6.946
2.28881	7.0061
2.28276	7.0256
2.27675	7.0781
2.27076	7.1184
2.26481	7.1733
2.25889	7.2375
2.253	7.2812
2.24714	7.2939
2.24131	7.363
2.23551	7.4118
2.22974	7.4604
2.224	7.5368
2.21829	7.571
2.21261	7.5876
2.20696	7.6079
2.20134	7.6997
2.19574	7.7605
2.19018	7.8408
2.18464	7.8926
2.17913	7.9048
2.17365	8.0046
2.16819	8.0356
2.16277	8.1133
2.15737	8.1987
2.15199	8.1968
2.14665	8.247
2.14133	8.3076
2.13603	8.4013
2.13077	8.4883
2.12552	8.5603
2.12031	8.5947
2.11512	8.6684
2.10995	8.7597
2.10481	8.8213
2.0997	8.8667
2.09461	8.9238
2.08954	9.0356
2.0845	9.0478
2.07948	9.1157
