Name: Diopside CaMgSi2O6
Type: Mineral
Class: Silicates
Subclass: Inosilicates (Chain Silicates) (Pyroxene Group)
Particle Size: Coarse  (74-250 Micrometers)
Sample No.: diopside.1
Owner: JHU
Wavelength Range: IR
Origin: Sample from St. Lawrence Co., New York via the Smithsonian
Description: Sample consisted of two green subhedral crystals 1-2 cm
Measurement: Bidirectional reflectance
X Units: Wavelength (micrometers)
Y Units: Reflectance (percent)
wavelength	value
25.0442	6.4472
24.3388	6.8176
23.6719	5.206
23.0407	6.1528
22.4422	5.8252
21.8741	6.9043
21.334	8.0014
20.8199	8.9853
20.33	8.4497
19.8627	9.4502
19.4163	9.9778
18.9896	8.5698
18.5812	8.9944
18.19	10.0495
17.815	10.573
17.4551	10.0193
17.1094	7.2834
16.7772	4.1294
16.4576	1.9016
16.15	1.6201
15.8537	2.1426
15.568	2.4783
15.2925	1.5239
15.0265	1.9014
14.7697	2.1016
14.5214	1.6269
14.2814	1.8462
14.0492	1.9714
13.8244	2.113
13.6067	2.2498
13.3957	2.3818
13.1912	2.4092
12.9929	2.5466
12.8004	2.6826
12.6135	2.7764
12.432	2.9558
12.2557	3.1565
12.0843	3.4621
11.9176	3.9812
11.7555	5.1206
11.5977	6.5185
11.444	7.2153
11.2944	7.6719
11.1487	8.0386
11.0067	8.4673
10.8682	9.3174
10.7332	7.9392
10.6015	8.0146
10.473	8.8362
10.3476	9.7927
10.2251	7.6076
10.1056	4.6514
9.98873	3.864
9.87458	4.4128
9.763	4.3999
9.65392	3.9321
9.54724	3.9294
9.44291	4.8843
9.34082	6.54
9.24091	7.0693
9.14312	7.321
9.04739	7.7173
8.95363	8.196
8.8618	8.6013
8.77183	8.8701
8.68368	6.9387
8.59727	4.6963
8.51257	2.5439
8.42951	0.9905
8.34807	0.4985
8.26819	0.6074
8.18981	0.7385
8.11292	0.8555
8.03745	0.9731
7.96337	1.1084
7.89064	1.2366
7.81924	1.3611
7.74911	1.4961
7.68023	1.6233
7.61256	1.7432
7.54608	1.791
7.48074	1.897
7.41653	1.9529
7.35341	1.9734
7.29136	1.9736
7.23034	2.0298
7.17033	2.1558
7.11132	2.3328
7.05327	2.564
6.99616	2.7407
6.93996	2.8398
6.88467	2.8809
6.83024	2.7497
6.77667	2.6267
6.72393	2.5054
6.67201	2.356
6.62089	2.3384
6.57054	2.2463
6.52095	2.1221
6.4721	2.0908
6.42398	2.1457
6.37657	2.3015
6.32986	2.4302
6.28382	2.477
6.23845	2.5576
6.19373	2.635
6.14965	2.5752
6.10619	2.4123
6.06334	2.5527
6.02109	2.7615
5.97942	3.1506
5.93832	3.8325
5.89778	4.4678
5.8578	4.4724
5.81835	4.654
5.77943	5.1626
5.74103	5.5403
5.70314	5.8337
5.66574	6.0537
5.62883	6.1201
5.5924	6.0815
5.55644	5.9753
5.52093	5.7583
5.48588	5.3738
5.45127	4.821
5.41709	4.2246
5.38334	3.9553
5.35	3.7764
5.31708	3.6665
5.28456	3.4853
5.25243	3.5039
5.2207	3.5779
5.18934	3.4089
5.15836	3.1851
5.12775	2.9258
5.09749	2.6113
5.0676	2.4714
5.03805	2.6606
5.00884	2.9897
4.97998	3.1042
4.95144	3.1262
4.92322	3.2153
4.89533	3.2742
4.86775	3.373
4.84048	3.6387
4.81351	3.9492
4.78684	4.2241
4.76047	4.3066
4.73439	4.5073
4.70859	5.0593
4.68306	5.5691
4.65782	5.8035
4.63284	6.2021
4.60814	6.6008
4.58369	7.1247
4.5595	7.6355
4.53557	8.1509
4.51188	8.8037
4.48845	9.1269
4.46525	9.313
4.44229	9.456
4.41957	9.5678
4.39708	9.6792
4.37481	9.7712
4.35277	9.8579
4.33096	9.9338
4.30935	10.0217
4.28797	10.1035
4.26679	10.1914
4.24583	10.2693
4.22506	10.3445
4.2045	10.3916
4.18414	10.4333
4.16398	10.4668
4.14401	10.4978
4.12423	10.5354
4.10464	10.5569
4.08523	10.5854
4.066	10.6054
4.04696	10.6321
4.02809	10.6306
4.0094	10.6479
3.99088	10.6645
3.97253	10.6909
3.95435	10.7165
3.93634	10.7514
3.91848	10.7878
3.90079	10.8081
3.88326	10.8384
3.86589	10.8481
3.84867	10.8659
3.8316	10.8728
3.81468	10.8894
3.79791	10.8999
3.78129	10.9106
3.76482	10.9316
3.74848	10.9304
3.73229	10.9348
3.71624	10.9328
3.70032	10.9326
3.68454	10.9265
3.6689	10.9223
3.65338	10.9155
3.638	10.9099
3.62275	10.8906
3.60762	10.8703
3.59262	10.8659
3.57775	10.8474
3.56299	10.8552
3.54836	10.8186
3.53385	10.8042
3.51945	10.768
3.50517	10.6894
3.49101	10.6919
3.47696	10.6789
3.46303	10.6679
3.4492	10.633
3.43549	10.6032
3.42188	10.529
3.40838	10.5207
3.39499	10.6035
3.38171	10.6001
3.36852	10.6252
3.35544	10.6374
3.34246	10.6814
3.32958	10.7055
3.3168	10.7058
3.30411	10.7356
3.29153	10.7485
3.27903	10.7512
3.26664	10.7351
3.25433	10.716
3.24212	10.7155
3.23	10.7004
3.21797	10.6587
3.20603	10.6457
3.19418	10.6301
3.18241	10.6081
3.17074	10.6072
3.15914	10.5825
3.14763	10.563
3.13621	10.5202
3.12487	10.4963
3.11361	10.469
3.10243	10.4238
3.09133	10.3725
3.0803	10.3733
3.06936	10.3518
3.0585	10.3083
3.04771	10.2881
3.037	10.2534
3.02636	10.2243
3.0158	10.1643
3.00531	10.1025
2.99489	10.0371
2.98454	9.978
2.97427	9.9306
2.96407	9.9092
2.95393	9.9009
2.94387	9.8501
2.93387	9.8327
2.92394	9.8303
2.91408	9.7907
2.90429	9.7297
2.89456	9.6653
2.88489	9.6255
2.87529	9.6123
2.86576	9.6491
2.85628	9.6523
2.84687	9.5718
2.83752	9.5456
2.82823	9.5151
2.81901	9.4702
2.80984	9.4375
2.80073	9.3979
2.79168	9.2639
2.78269	9.1257
2.77376	9.0974
2.76488	9.0818
2.75606	8.958
2.7473	8.6721
2.73859	8.9128
2.72994	8.7781
2.72134	8.0954
2.7128	9.3991
2.70431	9.7414
2.69587	9.8178
2.68748	9.8635
2.67915	9.8686
2.67087	9.8379
2.66264	9.8637
2.65446	9.8093
2.64633	9.7539
2.63825	9.6611
2.63021	9.5664
2.62223	9.4973
2.6143	9.4136
2.60641	9.3388
2.59857	9.2571
2.59078	9.174
2.58304	9.0949
2.57534	8.9963
2.56768	8.9416
2.56008	8.8418
2.55251	8.7685
2.54499	8.699
2.53752	8.6057
2.53009	8.5444
2.5227	8.4297
2.51536	8.2991
2.50806	8.2441
2.5008	8.1675
2.49358	8.0757
2.4864	7.9302
2.47927	7.8484
2.47218	7.7534
2.46512	7.6526
2.45811	7.6347
2.45114	7.5752
2.4442	7.4809
2.43731	7.4096
2.43045	7.3847
2.42363	7.3232
2.41685	7.272
2.41011	7.2627
2.40341	7.1855
2.39674	7.1465
2.39011	7.1103
2.38352	7.0727
2.37696	7.0571
2.37044	7.0552
2.36395	7.0176
2.35751	7.0046
2.35109	7.0298
2.34471	6.999
2.33836	6.9678
2.33205	6.9441
2.32578	6.9499
2.31953	6.949
2.31332	6.9338
2.30714	6.9551
2.301	7.0097
2.29489	6.988
2.28881	6.9978
2.28276	7.0046
2.27675	6.9946
2.27076	7.0386
2.26481	7.0864
2.25889	7.1272
2.253	7.1177
2.24714	7.1269
2.24131	7.1572
2.23551	7.1841
2.22974	7.2153
2.224	7.2124
2.21829	7.2966
2.21261	7.2871
2.20696	7.303
2.20134	7.3603
2.19574	7.374
2.19018	7.3706
2.18464	7.4067
2.17913	7.436
2.17365	7.5151
2.16819	7.5752
2.16277	7.6133
2.15737	7.6711
2.15199	7.6313
2.14665	7.6704
2.14133	7.7229
2.13603	7.7436
2.13077	7.7954
2.12552	7.8371
2.12031	7.8196
2.11512	7.9419
2.10995	7.9756
2.10481	7.9658
2.0997	8.0293
2.09461	8.0869
2.08954	8.1396
2.0845	8.1828
2.07948	8.2004
