Name: Richterite Na2Ca(Mg,Fe+2)5Si8O22(OH)2
Type: Mineral
Class: Silicates
Subclass: Inosilicates (chain silicates); (Amphibole Group)
Particle Size: Fine  (0 - 74  Micrometers)
Sample No.: richter.1
Owner: JHU
Wavelength Range: IR
Origin: Wilberforce, Ontario, Canada via the Smithsonian (sample no.
Description: The sample consisted of two large (6.49 and 6.45 g)
Measurement: Bidirectional reflectance
X Units: Wavelength (micrometers)
Y Units: Reflectance (percent)
wavelength	value
25.0442	2.1421
24.3388	1.7344
23.6719	1.6982
23.0407	1.7061
22.4422	1.7705
21.8741	1.8818
21.334	1.8191
20.8199	1.7629
20.33	1.8325
19.8627	1.7769
19.4163	1.8481
18.9896	1.8957
18.5812	2.0542
18.19	2.0154
17.815	2.3799
17.4551	2.3782
17.1094	1.9409
16.7772	1.449
16.4576	1.251
16.15	1.3098
15.8537	1.448
15.568	1.5029
15.2925	1.3061
15.0265	0.9375
14.7697	1.011
14.5214	1.3188
14.2814	1.4507
14.0492	1.5073
13.8244	1.5366
13.6067	1.4651
13.3957	1.3047
13.1912	1.5342
12.9929	2.2781
12.8004	2.7646
12.6135	2.8933
12.432	2.8782
12.2557	2.9714
12.0843	3.0107
11.9176	2.6799
11.7555	2.1748
11.5977	1.9534
11.444	1.8474
11.2944	1.5647
11.1487	1.2903
11.0067	1.186
10.8682	1.1069
10.7332	1.1133
10.6015	1.1445
10.473	1.2991
10.3476	1.4709
10.2251	1.6121
10.1056	1.6753
9.98873	1.6575
9.87458	1.5457
9.763	1.2756
9.65392	1.1074
9.54724	1.1001
9.44291	1.1658
9.34082	1.2053
9.24091	1.2532
9.14312	1.3074
9.04739	1.3484
8.95363	1.4348
8.8618	1.3064
8.77183	1.2932
8.68368	2.0027
8.59727	2.5991
8.51257	2.0017
8.42951	1.1335
8.34807	0.7617
8.26819	0.9109
8.18981	1.3704
8.11292	1.958
8.03745	2.5818
7.96337	3.2322
7.89064	3.8479
7.81924	4.4094
7.74911	4.8962
7.68023	5.311
7.61256	5.6799
7.54608	5.9848
7.48074	6.2702
7.41653	6.532
7.35341	6.7778
7.29136	6.9851
7.23034	7.1738
7.17033	7.384
7.11132	7.6421
7.05327	7.8828
6.99616	8.0425
6.93996	8.1943
6.88467	8.3078
6.83024	8.4397
6.77667	8.6098
6.72393	8.7937
6.67201	8.9995
6.62089	9.2187
6.57054	9.331
6.52095	9.2741
6.4721	9.0522
6.42398	8.6992
6.37657	8.3083
6.32986	7.9934
6.28382	7.7683
6.23845	7.6445
6.19373	7.6313
6.14965	7.7776
6.10619	7.9741
6.06334	8.1653
6.02109	8.2617
5.97942	8.3056
5.93832	8.3252
5.89778	8.4426
5.8578	8.594
5.81835	8.7075
5.77943	8.7895
5.74103	8.8801
5.70314	8.9438
5.66574	9.0276
5.62883	9.1496
5.5924	9.3073
5.55644	9.4524
5.52093	9.6135
5.48588	9.8589
5.45127	10.1762
5.41709	10.5078
5.38334	10.8362
5.35	11.0827
5.31708	11.2446
5.28456	11.4253
5.25243	11.5764
5.2207	11.5708
5.18934	11.373
5.15836	11.0578
5.12775	10.7485
5.09749	10.5471
5.0676	10.4536
5.03805	10.4917
5.00884	10.6426
4.97998	10.8496
4.95144	11.081
4.92322	11.313
4.89533	11.5349
4.86775	11.7568
4.84048	11.9516
4.81351	12.1169
4.78684	12.3213
4.76047	12.5654
4.73439	12.8398
4.70859	13.0698
4.68306	13.2268
4.65782	13.3884
4.63284	13.5932
4.60814	13.8391
4.58369	14.1052
4.5595	14.383
4.53557	14.6613
4.51188	14.9177
4.48845	15.1489
4.46525	15.3247
4.44229	15.4538
4.41957	15.5568
4.39708	15.6316
4.37481	15.6928
4.35277	15.7246
4.33096	15.7526
4.30935	15.7522
4.28797	15.7675
4.26679	15.7895
4.24583	15.8034
4.22506	15.8173
4.2045	15.8278
4.18414	15.8469
4.16398	15.8566
4.14401	15.8576
4.12423	15.8769
4.10464	15.8994
4.08523	15.9296
4.066	15.9602
4.04696	15.9709
4.02809	15.9804
4.0094	15.9953
3.99088	16.0149
3.97253	16.031
3.95435	16.0524
3.93634	16.0656
3.91848	16.0749
3.90079	16.1035
3.88326	16.1203
3.86589	16.1162
3.84867	16.1025
3.8316	16.0998
3.81468	16.0781
3.79791	16.0727
3.78129	16.073
3.76482	16.0564
3.74848	16.0351
3.73229	16.0205
3.71624	15.9958
3.70032	15.9675
3.68454	15.9484
3.6689	15.9087
3.65338	15.9082
3.638	15.8938
3.62275	15.874
3.60762	15.8481
3.59262	15.8281
3.57775	15.812
3.56299	15.7768
3.54836	15.7363
3.53385	15.7136
3.51945	15.6704
3.50517	15.6179
3.49101	15.6291
3.47696	15.6088
3.46303	15.5803
3.4492	15.5471
3.43549	15.4902
3.42188	15.4231
3.40838	15.4072
3.39499	15.3845
3.38171	15.3855
3.36852	15.3752
3.35544	15.341
3.34246	15.2893
3.32958	15.2622
3.3168	15.2446
3.30411	15.2407
3.29153	15.2216
3.27903	15.1953
3.26664	15.1438
3.25433	15.0869
3.24212	15.0859
3.23	15.0908
3.21797	15.1108
3.20603	15.1096
3.19418	15.0798
3.18241	15.0515
3.17074	15.0219
3.15914	15.0026
3.14763	14.9682
3.13621	14.8999
3.12487	14.8679
3.11361	14.8518
3.10243	14.8618
3.09133	14.8735
3.0803	14.8532
3.06936	14.8471
3.0585	14.8391
3.04771	14.8027
3.037	14.7971
3.02636	14.7573
3.0158	14.7287
3.00531	14.6923
2.99489	14.6872
2.98454	14.6696
2.97427	14.6289
2.96407	14.6157
2.95393	14.5722
2.94387	14.5683
2.93387	14.5661
2.92394	14.5468
2.91408	14.5498
2.90429	14.5349
2.89456	14.571
2.88489	14.5642
2.87529	14.5722
2.86576	14.5984
2.85628	14.5798
2.84687	14.5732
2.83752	14.5556
2.82823	14.5266
2.81901	14.51
2.80984	14.5371
2.80073	14.5915
2.79168	14.6142
2.78269	14.6626
2.77376	14.7089
2.76488	14.6281
2.75606	14.4655
2.7473	14.1367
2.73859	12.893
2.72994	10.1167
2.72134	6.6482
2.7128	10.7756
2.70431	8.0991
2.69587	7.6194
2.68748	10.6164
2.67915	13.5398
2.67087	15.4851
2.66264	16.269
2.65446	16.3164
2.64633	16.3188
2.63825	16.3798
2.63021	16.3889
2.62223	16.3969
2.6143	16.4211
2.60641	16.3444
2.59857	16.3545
2.59078	16.3491
2.58304	16.2951
2.57534	16.2666
2.56768	16.2373
2.56008	16.2031
2.55251	16.2055
2.54499	16.2065
2.53752	16.2094
2.53009	16.2133
2.5227	16.2021
2.51536	16.167
2.50806	16.1587
2.5008	16.153
2.49358	16.1093
2.4864	16.0644
2.47927	16.0581
2.47218	15.9624
2.46512	15.8623
2.45811	15.8579
2.45114	15.8857
2.4442	15.8608
2.43731	15.8418
2.43045	15.8964
2.42363	15.8801
2.41685	15.8881
2.41011	15.9213
2.40341	15.8662
2.39674	15.6821
2.39011	15.3545
2.38352	15.123
2.37696	14.914
2.37044	15.2177
2.36395	15.5556
2.35751	15.7329
2.35109	15.8237
2.34471	15.863
2.33836	15.8483
2.33205	15.7136
2.32578	15.435
2.31953	14.8586
2.31332	14.415
2.30714	14.6565
2.301	15.1093
2.29489	15.466
2.28881	15.6047
2.28276	15.7246
2.27675	15.84
2.27076	15.937
2.26481	15.9687
2.25889	16.0246
2.253	16.094
2.24714	16.0888
2.24131	16.0847
2.23551	16.123
2.22974	16.0993
2.224	16.1132
2.21829	16.1525
2.21261	16.176
2.20696	16.1167
2.20134	16.134
2.19574	16.1455
2.19018	16.1225
2.18464	16.124
2.17913	16.0654
2.17365	16.123
2.16819	16.1035
2.16277	16.1518
2.15737	16.1113
2.15199	16.0305
2.14665	16.0776
2.14133	16.0393
2.13603	16.0517
2.13077	15.9892
2.12552	16.0405
2.12031	16.0361
2.11512	16.0344
2.10995	16.0605
2.10481	16.0864
2.0997	16.0742
2.09461	16.0861
2.08954	16.1008
2.0845	16.1294
2.07948	16.0871
