Name: Pectolite NaCa2Si308(OH)
Type: Mineral
Class: Silicates
Subclass: Inosilicates (Chain Silicates); (Pyrexenoid Group)
Particle Size: Fine  (0 - 74 Micrometers)
Sample No.: pectol.2
Owner: JHU
Wavelength Range: IR
Origin: Thedford, Ontario, Canada via the Smithsonian (sample no.
Description: Sample consisted of a small (1 mm x 1 mm x 1 cm ) and
Measurement: Bidirectional reflectance
X Units: Wavelength (micrometers)
Y Units: Reflectance (percent)
wavelength	value
25.0442	3.1365
24.3388	2.2598
23.6719	2.3037
23.0407	2.4058
22.4422	2.7102
21.8741	3.0854
21.334	3.2815
20.8199	3.2822
20.33	2.9011
19.8627	2.654
19.4163	2.0864
18.9896	1.5869
18.5812	1.4558
18.19	1.5056
17.815	1.5674
17.4551	1.6096
17.1094	1.7578
16.7772	1.8872
16.4576	1.8948
16.15	1.9495
15.8537	1.7827
15.568	1.4927
15.2925	1.4849
15.0265	1.7805
14.7697	2.5222
14.5214	2.0566
14.2814	1.9917
14.0492	2.0742
13.8244	2.1497
13.6067	2.147
13.3957	2.1367
13.1912	2.1443
12.9929	2.1094
12.8004	2.0901
12.6135	2.0857
12.432	2.0881
12.2557	2.0574
12.0843	2.032
11.9176	2.0518
11.7555	2.0269
11.5977	2.0254
11.444	2.0278
11.2944	1.9465
11.1487	1.9844
11.0067	2.3337
10.8682	2.5076
10.7332	2.6269
10.6015	2.7712
10.473	2.8948
10.3476	2.4414
10.2251	2.0007
10.1056	1.9463
9.98873	1.4702
9.87458	1.2642
9.763	1.511
9.65392	1.7939
9.54724	2.02
9.44291	2.1982
9.34082	2.4289
9.24091	2.7178
9.14312	3.0715
9.04739	3.2554
8.95363	2.8516
8.8618	2.0894
8.77183	1.3916
8.68368	0.9895
8.59727	0.845
8.51257	0.8643
8.42951	0.9639
8.34807	1.0915
8.26819	1.2231
8.18981	1.3435
8.11292	1.468
8.03745	1.5586
7.96337	1.6548
7.89064	1.7209
7.81924	1.782
7.74911	1.8332
7.68023	1.8713
7.61256	1.9121
7.54608	1.9321
7.48074	1.9285
7.41653	1.8867
7.35341	1.7974
7.29136	1.6072
7.23034	1.3518
7.17033	1.1287
7.11132	1.1516
7.05327	1.4436
6.99616	1.7607
6.93996	1.9453
6.88467	2.0613
6.83024	2.1113
6.77667	2.1531
6.72393	2.2278
6.67201	2.3098
6.62089	2.4065
6.57054	2.4729
6.52095	2.551
6.4721	2.5664
6.42398	2.561
6.37657	2.6001
6.32986	2.6157
6.28382	2.6282
6.23845	2.6384
6.19373	2.6328
6.14965	2.6721
6.10619	2.7295
6.06334	2.7947
6.02109	2.8508
5.97942	2.8762
5.93832	2.8664
5.89778	2.8892
5.8578	2.937
5.81835	2.9563
5.77943	3.0005
5.74103	3.0225
5.70314	3.063
5.66574	3.1111
5.62883	3.1545
5.5924	3.1709
5.55644	3.2038
5.52093	3.2251
5.48588	3.2458
5.45127	3.2849
5.41709	3.3025
5.38334	3.3323
5.35	3.3655
5.31708	3.3889
5.28456	3.3801
5.25243	3.3957
5.2207	3.4116
5.18934	3.4624
5.15836	3.5305
5.12775	3.592
5.09749	3.6326
5.0676	3.676
5.03805	3.7251
5.00884	3.7417
4.97998	3.7698
4.95144	3.8054
4.92322	3.8784
4.89533	3.9499
4.86775	4.0144
4.84048	4.0598
4.81351	4.0984
4.78684	4.1323
4.76047	4.1658
4.73439	4.1999
4.70859	4.2119
4.68306	4.2302
4.65782	4.2417
4.63284	4.2571
4.60814	4.2683
4.58369	4.2727
4.5595	4.2788
4.53557	4.2829
4.51188	4.2663
4.48845	4.2646
4.46525	4.2583
4.44229	4.2451
4.41957	4.2341
4.39708	4.2358
4.37481	4.2229
4.35277	4.2407
4.33096	4.2483
4.30935	4.2593
4.28797	4.2878
4.26679	4.3076
4.24583	4.3413
4.22506	4.3547
4.2045	4.4001
4.18414	4.4343
4.16398	4.4639
4.14401	4.5058
4.12423	4.5576
4.10464	4.6062
4.08523	4.6658
4.066	4.7146
4.04696	4.7707
4.02809	4.8181
4.0094	4.8674
3.99088	4.9094
3.97253	4.9665
3.95435	5.0293
3.93634	5.0972
3.91848	5.1538
3.90079	5.2244
3.88326	5.2786
3.86589	5.3496
3.84867	5.416
3.8316	5.4878
3.81468	5.5549
3.79791	5.6181
3.78129	5.6606
3.76482	5.7131
3.74848	5.7515
3.73229	5.7497
3.71624	5.7556
3.70032	5.7485
3.68454	5.7324
3.6689	5.7329
3.65338	5.73
3.638	5.6936
3.62275	5.6467
3.60762	5.5647
3.59262	5.4883
3.57775	5.4162
3.56299	5.366
3.54836	5.3415
3.53385	5.3569
3.51945	5.3952
3.50517	5.4197
3.49101	5.4973
3.47696	5.5893
3.46303	5.6741
3.4492	5.7517
3.43549	5.8269
3.42188	5.8984
3.40838	5.9709
3.39499	6.0666
3.38171	6.1487
3.36852	6.2363
3.35544	6.3125
3.34246	6.3957
3.32958	6.4758
3.3168	6.5349
3.30411	6.6218
3.29153	6.6748
3.27903	6.7561
3.26664	6.8337
3.25433	6.8869
3.24212	6.969
3.23	7.0217
3.21797	7.1033
3.20603	7.1701
3.19418	7.2471
3.18241	7.3125
3.17074	7.3918
3.15914	7.4336
3.14763	7.4997
3.13621	7.5613
3.12487	7.6301
3.11361	7.7058
3.10243	7.7785
3.09133	7.8567
3.0803	7.9275
3.06936	7.9973
3.0585	8.0552
3.04771	8.1311
3.037	8.2102
3.02636	8.2754
3.0158	8.31
3.00531	8.3738
2.99489	8.4468
2.98454	8.5259
2.97427	8.5735
2.96407	8.6113
2.95393	8.6648
2.94387	8.7048
2.93387	8.7529
2.92394	8.8025
2.91408	8.8591
2.90429	8.915
2.89456	8.9648
2.88489	8.9992
2.87529	9.0246
2.86576	9.0881
2.85628	9.1408
2.84687	9.1848
2.83752	9.216
2.82823	9.2746
2.81901	9.3196
2.80984	9.352
2.80073	9.3877
2.79168	9.4468
2.78269	9.4656
2.77376	9.5068
2.76488	9.5376
2.75606	9.5481
2.7473	9.5981
2.73859	9.6389
2.72994	9.6606
2.72134	9.4905
2.7128	9.6218
2.70431	9.7849
2.69587	9.8515
2.68748	9.9292
2.67915	9.9565
2.67087	9.9897
2.66264	10.0595
2.65446	10.1028
2.64633	10.1294
2.63825	10.1633
2.63021	10.1841
2.62223	10.2392
2.6143	10.2768
2.60641	10.2971
2.59857	10.3701
2.59078	10.4294
2.58304	10.3913
2.57534	10.4104
2.56768	10.4782
2.56008	10.456
2.55251	10.4748
2.54499	10.51
2.53752	10.5315
2.53009	10.5117
2.5227	10.5134
2.51536	10.5161
2.50806	10.5578
2.5008	10.5161
2.49358	10.5132
2.4864	10.5256
2.47927	10.5312
2.47218	10.5176
2.46512	10.4897
2.45811	10.5234
2.45114	10.5305
2.4442	10.5017
2.43731	10.5071
2.43045	10.5293
2.42363	10.5388
2.41685	10.5439
2.41011	10.5869
2.40341	10.5634
2.39674	10.5305
2.39011	10.5539
2.38352	10.5678
2.37696	10.5649
2.37044	10.5715
2.36395	10.6316
2.35751	10.6318
2.35109	10.6216
2.34471	10.6469
2.33836	10.6362
2.33205	10.6855
2.32578	10.6863
2.31953	10.7453
2.31332	10.7534
2.30714	10.7544
2.301	10.8364
2.29489	10.8034
2.28881	10.8445
2.28276	10.9004
2.27675	10.9634
2.27076	10.9585
2.26481	11.0232
2.25889	11.0757
2.253	11.133
2.24714	11.1609
2.24131	11.1838
2.23551	11.2868
2.22974	11.279
2.224	11.2829
2.21829	11.3967
2.21261	11.4218
2.20696	11.4519
2.20134	11.5075
2.19574	11.5693
2.19018	11.572
2.18464	11.646
2.17913	11.6318
2.17365	11.7182
2.16819	11.7475
2.16277	11.8188
2.15737	11.8554
2.15199	11.8891
2.14665	11.8816
2.14133	11.9223
2.13603	12.0185
2.13077	12.1255
2.12552	12.1113
2.12031	12.2324
2.11512	12.2705
2.10995	12.3291
2.10481	12.3149
2.0997	12.3974
2.09461	12.4414
2.08954	12.5634
2.0845	12.6616
2.07948	12.6826
