Name: Allende3
Type: Stony Meteorites
Class: Carbonaceous Chondrite
Subclass: CV3
Particle Size: 0-75 micrometers
Sample No.: Allende3
Owner: JHU
Origin: Meteorite seen to fall in Mexico in 1969.  Sample from Arizona State
Description: None.
Measurement: Bidirectional reflectance
X Units: Wavelength (micrometers)
Y Units: Reflectance (percent)
wavelength	value
25.044	0.1208
24.339	0.3481
23.672	0.3154
23.041	0.2644
22.442	0.3088
21.874	0.4202
21.334	0.3523
20.82	0.4448
20.33	0.3013
19.863	0.3813
19.416	0.365
18.99	0.4028
18.581	0.3787
18.19	0.2971
17.815	0.3091
17.455	0.3315
17.109	0.29
16.777	0.2959
16.458	0.2588
16.15	0.3464
15.854	0.3586
15.568	0.4165
15.292	0.4385
15.027	0.4746
14.77	0.4966
14.521	0.5925
14.281	0.6609
14.049	0.7019
13.824	0.7771
13.607	0.8735
13.396	0.979
13.191	1.0698
12.993	1.1465
12.8	1.2104
12.614	1.2205
12.432	1.157
12.256	0.97
12.084	0.6641
11.918	0.5015
11.755	0.5386
11.598	0.55
11.444	0.5984
11.294	0.5793
11.149	0.562
11.007	0.551
10.868	0.5759
10.733	0.5662
10.602	0.5247
10.473	0.469
10.348	0.4475
10.225	0.4456
10.106	0.4128
9.9887	0.4036
9.8746	0.4167
9.763	0.4546
9.6539	0.5032
9.5472	0.5378
9.4429	0.522
9.3408	0.4761
9.2409	0.4416
9.1431	0.4583
9.0474	0.531
8.9536	0.644
8.8618	0.7488
8.7718	0.8286
8.6837	0.8811
8.5973	0.9463
8.5126	1.0105
8.4295	1.0662
8.3481	1.1296
8.2682	1.196
8.1898	1.2517
8.1129	1.304
8.0374	1.3494
7.9634	1.3931
7.8906	1.4241
7.8192	1.46
7.7491	1.4829
7.6802	1.5034
7.6126	1.5266
7.5461	1.5408
7.4807	1.5662
7.4165	1.5937
7.3534	1.6057
7.2914	1.6135
7.2303	1.6257
7.1703	1.6489
7.1113	1.6604
7.0533	1.6921
6.9962	1.7136
6.94	1.729
6.8847	1.7341
6.8302	1.7451
6.7767	1.7681
6.7239	1.7764
6.672	1.7827
6.6209	1.7827
6.5705	1.7908
6.5209	1.7893
6.4721	1.7783
6.424	1.7686
6.3766	1.7473
6.3299	1.7336
6.2838	1.7087
6.2385	1.7075
6.1937	1.7209
6.1496	1.7324
6.1062	1.738
6.0633	1.7244
6.0211	1.7251
5.9794	1.7405
5.9383	1.759
5.8978	1.7812
5.8578	1.792
5.8184	1.8032
5.7794	1.8037
5.741	1.7881
5.7031	1.7568
5.6657	1.7527
5.6288	1.7624
5.5924	1.7881
5.5564	1.8061
5.5209	1.8154
5.4859	1.8193
5.4513	1.824
5.4171	1.8325
5.3833	1.8411
5.35	1.8474
5.3171	1.8608
5.2846	1.8708
5.2524	1.8699
5.2207	1.8728
5.1893	1.8794
5.1584	1.8823
5.1277	1.8799
5.0975	1.8845
5.0676	1.8865
5.038	1.8931
5.0088	1.8938
4.98	1.8938
4.9514	1.8901
4.9232	1.9036
4.8953	1.9019
4.8678	1.9138
4.8405	1.9153
4.8135	1.9211
4.7868	1.9158
4.7605	1.9141
4.7344	1.9172
4.7086	1.915
4.6831	1.9209
4.6578	1.9187
4.6328	1.9275
4.6081	1.9314
4.5837	1.936
4.5595	1.9365
4.5356	1.936
4.5119	1.9319
4.4884	1.9294
4.4652	1.9329
4.4423	1.9348
4.4196	1.9326
4.3971	1.9387
4.3748	1.9346
4.3528	1.9321
4.331	1.9307
4.3094	1.9226
4.288	1.9236
4.2668	1.9187
4.2458	1.9148
4.2251	1.9153
4.2045	1.9155
4.1841	1.9141
4.164	1.9075
4.144	1.9016
4.1242	1.9036
4.1046	1.8965
4.0852	1.8945
4.066	1.8972
4.047	1.8962
4.0281	1.8984
4.0094	1.8948
3.9909	1.8918
3.9725	1.8945
3.9544	1.8831
3.9363	1.8909
3.9185	1.8943
3.9008	1.8896
3.8833	1.8882
3.8659	1.8867
3.8487	1.8852
3.8316	1.8765
3.8147	1.8713
3.7979	1.8657
3.7813	1.8696
3.7648	1.8655
3.7485	1.8726
3.7323	1.8599
3.7162	1.8513
3.7003	1.8572
3.6845	1.8445
3.6689	1.8384
3.6534	1.8318
3.638	1.8328
3.6227	1.8332
3.6076	1.8245
3.5926	1.8227
3.5777	1.8262
3.563	1.8174
3.5484	1.8147
3.5338	1.8079
3.5195	1.7996
3.5052	1.7937
3.491	1.791
3.477	1.7913
3.463	1.7751
3.4492	1.7798
3.4355	1.7703
3.4219	1.7598
3.4084	1.7495
3.395	1.7563
3.3817	1.7502
3.3685	1.7537
3.3554	1.7539
3.3425	1.751
3.3296	1.7427
3.3168	1.7363
3.3041	1.7327
3.2915	1.7258
3.279	1.7268
3.2666	1.7148
3.2543	1.7124
3.2421	1.7046
3.23	1.7048
3.218	1.7043
3.206	1.6968
3.1942	1.6963
3.1824	1.6934
3.1707	1.6814
3.1591	1.6831
3.1476	1.6804
3.1362	1.6753
3.1249	1.6599
3.1136	1.6606
3.1024	1.6472
3.0913	1.6487
3.0803	1.6477
3.0694	1.6294
3.0585	1.6338
3.0477	1.6279
3.037	1.6152
3.0264	1.613
3.0158	1.6169
3.0053	1.6086
2.9949	1.5994
2.9845	1.5928
2.9743	1.5994
2.9641	1.5874
2.9539	1.5781
2.9439	1.5808
2.9339	1.5723
2.9239	1.5857
2.9141	1.5664
2.9043	1.5674
2.8946	1.5654
2.8849	1.5564
2.8753	1.5464
2.8658	1.5486
2.8563	1.5586
2.8469	1.5605
2.8375	1.5559
2.8282	1.5488
2.819	1.5535
2.8098	1.5483
2.8007	1.5454
2.7917	1.5454
2.7827	1.5544
2.7738	1.5598
2.7649	1.5581
2.7561	1.563
2.7473	1.5679
2.7386	1.5471
2.7299	1.5659
2.7213	1.5581
2.7128	1.564
2.7043	1.5732
2.6959	1.5659
2.6875	1.5662
2.6791	1.5776
2.6709	1.5666
2.6626	1.5691
2.6545	1.5735
2.6463	1.5713
2.6382	1.5625
2.6302	1.5569
2.6222	1.5649
2.6143	1.5649
2.6064	1.5576
2.5986	1.5649
2.5908	1.5566
2.583	1.5581
2.5753	1.5439
2.5677	1.5449
2.5601	1.5491
2.5525	1.5413
2.545	1.5373
2.5375	1.5386
2.5301	1.5447
2.5227	1.5259
2.5154	1.5164
2.5081	1.5181
2.5008	1.5161
2.4936	1.5183
2.4864	1.5134
2.4793	1.5127
2.4722	1.512
2.4651	1.51
2.4581	1.5078
2.4511	1.5098
2.4442	1.5032
2.4373	1.5142
2.4305	1.4993
2.4236	1.4917
2.4169	1.4998
2.4101	1.5068
2.4034	1.4866
2.3967	1.5002
2.3901	1.4946
2.3835	1.5032
2.377	1.5002
2.3704	1.4885
2.364	1.4824
2.3575	1.4927
2.3511	1.4915
2.3447	1.4941
2.3384	1.479
2.3321	1.4868
2.3258	1.4866
2.3195	1.4692
2.3133	1.4661
2.3071	1.4792
2.301	1.4763
2.2949	1.4792
2.2888	1.4968
2.2828	1.4814
2.2767	1.4988
2.2708	1.4612
2.2648	1.4751
2.2589	1.4841
2.253	1.4617
2.2471	1.4748
2.2413	1.4795
2.2355	1.4802
2.2297	1.4646
2.224	1.4697
2.2183	1.4685
2.2126	1.4668
2.207	1.4766
2.2013	1.4695
2.1957	1.4836
2.1902	1.4724
2.1846	1.4614
2.1791	1.4758
2.1736	1.4685
2.1682	1.4573
2.1628	1.4604
2.1574	1.4497
2.152	1.4651
2.1466	1.4497
2.1413	1.449
2.136	1.4558
2.1308	1.4382
2.1255	1.4368
2.1203	1.4626
2.1151	1.4446
2.11	1.4543
2.1048	1.4424
2.0997	1.4456
2.0946	1.4434
2.0895	1.4238
2.0845	1.4248
2.0795	1.446
