Name: Pyrope Mg3Al2(SiO4)3
Type: Mineral
Class: Silicates
Subclass: Nesosilicates (Isolated tetrahedra); Garnet Group
Particle Size: Fine  (Less than 2 micrometers)
Sample No.: pyrope.1
Owner: JHU
Wavelength Range: IR
Origin: Finsch Mine, Brits Farm, 23 miles E. of Posemasburg, Cape
Description: The sample consisted of many rounded (tumbled?)
Measurement: Transmission
X Units: Wavelength (micrometers)
Y Units: Transmittance (percent)
wavelength	value
25.0442	48.453
24.3388	51.0194
23.6719	47.6561
23.0407	38.2929
22.4422	26.6113
21.8741	18.5078
21.334	23.6581
20.8199	18.9062
20.33	24.7109
19.8627	32.83
19.4163	39.369
18.9896	42.6171
18.5812	45.122
18.19	59.4647
17.815	58.1913
17.4551	35.3085
17.1094	40.3827
16.7772	48.0897
16.4576	61.9774
16.15	72.2244
15.8537	78.6375
15.568	83.0828
15.2925	85.9812
15.0265	89.0623
14.7697	91.6638
14.5214	92.2273
14.2814	91.6033
14.0492	89.7644
13.8244	87.3513
13.6067	84.6238
13.3957	80.5691
13.1912	76.9319
12.9929	73.0584
12.8004	67.9119
12.6135	62.2445
12.432	55.701
12.2557	51.5096
12.0843	45.8612
11.9176	37.1835
11.7555	29.1742
11.5977	22.291
11.444	20.2167
11.2944	24.0283
11.1487	20.0146
11.0067	23.9911
10.8682	30.8564
10.7332	41.2528
10.6015	47.4891
10.473	30.706
10.3476	17.8027
10.2251	23.0976
10.1056	27.248
9.98873	27.9408
9.87458	32.8622
9.763	41.08
9.65392	48.348
9.54724	52.9803
9.44291	55.5614
9.34082	56.9081
9.24091	58.1644
9.14312	59.2127
9.04739	62.7938
8.95363	64.9032
8.8618	67.5721
8.77183	68.3768
8.68368	68.1678
8.59727	70.5345
8.51257	72.994
8.42951	75.948
8.34807	79.1155
8.26819	81.7305
8.18981	84.1114
8.11292	86.1902
8.03745	87.6594
7.96337	88.9336
7.89064	90.155
7.81924	91.2227
7.74911	91.9011
7.68023	92.4824
7.61256	93.1267
7.54608	93.5703
7.48074	93.9717
7.41653	94.3408
7.35341	94.6443
7.29136	94.8943
7.23034	94.7239
7.17033	94.8076
7.11132	94.9971
7.05327	95.6504
6.99616	96.0635
6.93996	95.9424
6.88467	96.0481
6.83024	96.4541
6.77667	96.4954
6.72393	96.6201
6.67201	97.0408
6.62089	97.3555
6.57054	97.3613
6.52095	97.1855
6.4721	97.0652
6.42398	96.7891
6.37657	96.5056
6.32986	96.2082
6.28382	95.5303
6.23845	94.3787
6.19373	92.7139
6.14965	91.8242
6.10619	92.2754
6.06334	92.8301
6.02109	93.3418
5.97942	94.3455
5.93832	96.0049
5.89778	96.8789
5.8578	97.1396
5.81835	97.05
5.77943	96.9492
5.74103	96.801
5.70314	96.7246
5.66574	96.5769
5.62883	96.4268
5.5924	96.415
5.55644	96.3816
5.52093	96.3789
5.48588	96.3416
5.45127	96.4285
5.41709	96.4441
5.38334	96.3894
5.35	96.3291
5.31708	96.2996
5.28456	96.2351
5.25243	96.1853
5.2207	96.1943
5.18934	96.1472
5.15836	96.0808
5.12775	96.0859
5.09749	95.9873
5.0676	95.9307
5.03805	95.8411
5.00884	95.8
4.97998	95.7019
4.95144	95.5959
4.92322	95.4875
4.89533	95.3708
4.86775	95.2625
4.84048	95.1287
4.81351	94.9714
4.78684	94.8938
4.76047	94.7654
4.73439	94.6472
4.70859	94.489
4.68306	94.3972
4.65782	94.2537
4.63284	94.1599
4.60814	94.1194
4.58369	94.0022
4.5595	93.8572
4.53557	93.7224
4.51188	93.5535
4.48845	93.4749
4.46525	93.322
4.44229	93.1956
4.41957	93.116
4.39708	93.0086
4.37481	92.9006
4.35277	92.8362
4.33096	92.6365
4.30935	92.5134
4.28797	92.3591
4.26679	92.1931
4.24583	92.1599
4.22506	92.0964
4.2045	91.9187
4.18414	91.8264
4.16398	91.7078
4.14401	91.5549
4.12423	91.4597
4.10464	91.4221
4.08523	91.2156
4.066	91.0398
4.04696	90.9402
4.02809	90.8718
4.0094	90.8015
3.99088	90.5818
3.97253	90.4182
3.95435	90.3714
3.93634	90.2444
3.91848	90.1819
3.90079	90.0877
3.88326	89.866
3.86589	89.7361
3.84867	89.6287
3.8316	89.489
3.81468	89.3582
3.79791	89.3064
3.78129	89.1336
3.76482	88.9597
3.74848	88.8767
3.73229	88.7171
3.71624	88.6096
3.70032	88.4549
3.68454	88.3377
3.6689	88.1707
3.65338	88.0315
3.638	87.9617
3.62275	87.8167
3.60762	87.6111
3.59262	87.5901
3.57775	87.408
3.56299	87.3108
3.54836	87.1629
3.53385	87.0349
3.51945	86.9065
3.50517	86.7849
3.49101	86.7307
3.47696	86.6096
3.46303	86.4763
3.4492	86.3167
3.43549	86.1863
3.42188	85.824
3.40838	85.656
3.39499	85.43
3.38171	85.2678
3.36852	85.1306
3.35544	84.844
3.34246	84.5296
3.32958	84.4275
3.3168	84.1643
3.30411	84.0843
3.29153	83.8518
3.27903	83.6175
3.26664	83.4085
3.25433	83.1214
3.24212	82.8538
3.23	82.5335
3.21797	82.3055
3.20603	81.9529
3.19418	81.6756
3.18241	81.49
3.17074	81.239
3.15914	80.9607
3.14763	80.5603
3.13621	80.282
3.12487	79.781
3.11361	79.656
3.10243	79.5916
3.09133	79.2508
3.0803	78.9851
3.06936	78.7498
3.0585	78.6404
3.04771	78.4568
3.037	78.1502
3.02636	77.8123
3.0158	77.1336
3.00531	76.6326
2.99489	75.9695
2.98454	75.285
2.97427	74.575
2.96407	73.5232
2.95393	72.6131
2.94387	71.9813
2.93387	71.493
2.92394	70.9617
2.91408	70.9227
2.90429	71.0203
2.89456	71.285
2.88489	71.7361
2.87529	72.1424
2.86576	72.4373
2.85628	73.1287
2.84687	73.6961
2.83752	74.1023
2.82823	73.575
2.81901	74.1219
2.80984	75.0389
2.80073	75.5818
2.79168	76.2439
2.78269	76.7068
2.77376	76.8641
2.76488	77.1297
2.75606	77.7615
2.7473	78.324
2.73859	78.8396
2.72994	79.1873
2.72134	79.3709
2.7128	79.3279
2.70431	79.3172
2.69587	79.4422
2.68748	79.4266
2.67915	79.325
2.67087	79.4256
2.66264	79.1111
2.65446	79.0369
2.64633	78.9773
2.63825	78.8875
2.63021	78.7693
2.62223	78.6482
2.6143	78.4529
2.60641	78.3943
2.59857	78.3123
2.59078	78.4197
2.58304	78.365
2.57534	78.158
2.56768	78.0701
2.56008	77.8865
2.55251	77.7146
2.54499	77.7459
2.53752	77.5877
2.53009	77.4275
2.5227	77.3299
2.51536	77.4158
2.50806	77.4686
2.5008	77.2049
2.49358	77.1678
2.4864	76.949
2.47927	76.9803
2.47218	76.7693
2.46512	76.8846
2.45811	76.8123
2.45114	76.6248
2.4442	76.5525
2.43731	76.3436
2.43045	76.3865
2.42363	76.3982
2.41685	76.3123
2.41011	76.3846
2.40341	76.0115
2.39674	76.0896
2.39011	75.9959
2.38352	75.8689
2.37696	75.7811
2.37044	75.6893
2.36395	75.4705
2.35751	75.492
2.35109	75.7771
2.34471	75.4705
2.33836	75.3982
2.33205	75.16
2.32578	74.992
2.31953	75.0623
2.31332	75.0721
2.30714	74.908
2.301	74.8611
2.29489	74.7615
2.28881	74.9236
2.28276	74.783
2.27675	74.369
2.27076	74.7908
2.26481	74.5311
2.25889	74.4158
2.253	74.3475
2.24714	74.4139
2.24131	74.2498
2.23551	74.0037
2.22974	74.0076
2.224	74.0936
2.21829	73.9998
2.21261	73.9061
2.20696	74.0467
2.20134	73.6482
2.19574	73.9217
2.19018	73.7654
2.18464	73.5311
2.17913	73.3006
2.17365	73.4803
2.16819	73.199
2.16277	73.617
2.15737	73.5272
2.15199	73.1951
2.14665	73.0311
2.14133	73.1287
2.13603	73.074
2.13077	73.0623
2.12552	72.8162
2.12031	72.992
2.11512	73.0076
2.10995	72.66
2.10481	72.6483
2.0997	72.91
2.09461	72.7108
2.08954	72.4881
2.0845	72.9608
2.07948	72.4529
