Name: Clinochlore (Fe+2,Mg)5Al(Si3Al)O10(OH)8
Type: Mineral
Class: Silicates
Subclass: Phyllosilicates (sheet silicates) (Chlorite Group)
Particle Size: Fine  (0-74 Micrometers)
Sample No.: clinochl.2
Owner: JHU
Wavelength Range: IR
Origin: Hunt and Salisbury Collection (from the Clay Mineral Society
Description: The sample was made up of green chunks of coarsely
Measurement: Bidirectional reflectance
X Units: Wavelength (micrometers)
Y Units: Reflectance (percent)
wavelength	value
25.044	1.7744
24.339	1.6894
23.672	1.8486
23.041	1.9541
22.442	1.949
21.874	2.0371
21.334	2.1787
20.82	2.1999
20.33	2.0015
19.863	1.8911
19.416	1.717
18.99	1.2021
18.581	1.0254
18.19	1.1152
17.815	1.1023
17.455	0.8879
17.109	0.9487
16.777	1.1855
16.458	1.2766
16.15	1.2788
15.854	1.1484
15.568	1.1042
15.292	1.0022
15.027	0.925
14.77	0.8867
14.521	0.8249
14.281	0.8582
14.049	0.9131
13.824	0.9685
13.607	1.019
13.396	1.0078
13.191	0.9399
12.993	0.8757
12.8	0.8142
12.614	0.8301
12.432	0.8354
12.256	0.8914
12.084	0.9478
11.918	1.2249
11.755	1.4658
11.598	1.4907
11.444	1.4729
11.294	1.4631
11.149	1.4404
11.007	1.3967
10.868	1.3657
10.733	1.3018
10.602	1.2385
10.473	1.2087
10.348	1.2551
10.225	1.3354
10.106	1.5132
9.9887	1.678
9.8746	1.7573
9.763	1.8091
9.6539	1.7434
9.5472	1.7026
9.4429	1.8835
9.3408	1.977
9.2409	1.8511
9.1431	1.7798
9.0474	1.4548
8.9536	1.1653
8.8618	1.1079
8.7718	1.2454
8.6837	1.5857
8.5973	1.9993
8.5126	2.4797
8.4295	2.9709
8.3481	3.4277
8.2682	3.8454
8.1898	4.2317
8.1129	4.5586
8.0374	4.8445
7.9634	5.1057
7.8906	5.3425
7.8192	5.5647
7.7491	5.7654
7.6802	5.9409
7.6126	6.0889
7.5461	6.2119
7.4807	6.3147
7.4165	6.4189
7.3534	6.5635
7.2914	6.678
7.2303	6.792
7.1703	6.9065
7.1113	7.0078
7.0533	7.0998
6.9962	7.2156
6.94	7.2695
6.8847	7.2966
6.8302	7.2925
6.7767	7.2768
6.7239	7.2119
6.672	7.1313
6.6209	7.043
6.5705	6.9394
6.5209	6.8244
6.4721	6.687
6.424	6.5264
6.3766	6.3887
6.3299	6.2807
6.2838	6.2485
6.2385	6.2405
6.1937	6.2268
6.1496	6.2307
6.1062	6.2356
6.0633	6.2961
6.0211	6.374
5.9794	6.4814
5.9383	6.5879
5.8978	6.7002
5.8578	6.8149
5.8184	6.9372
5.7794	7.1211
5.741	7.3078
5.7031	7.438
5.6657	7.5107
5.6288	7.5447
5.5924	7.6064
5.5564	7.6628
5.5209	7.7624
5.4859	7.8252
5.4513	7.8804
5.4171	7.8845
5.3833	7.8777
5.35	7.8799
5.3171	7.9114
5.2846	7.98
5.2524	8.105
5.2207	8.251
5.1893	8.3828
5.1584	8.4851
5.1277	8.5383
5.0975	8.5561
5.0676	8.5698
5.038	8.5683
5.0088	8.5671
4.98	8.6047
4.9514	8.7422
4.9232	8.9272
4.8953	9.1828
4.8678	9.4182
4.8405	9.6299
4.8135	9.8218
4.7868	10.01
4.7605	10.247
4.7344	10.558
4.7086	10.843
4.6831	11.07
4.6578	11.262
4.6328	11.407
4.6081	11.584
4.5837	11.828
4.5595	12.009
4.5356	12.145
4.5119	12.259
4.4884	12.373
4.4652	12.492
4.4423	12.591
4.4196	12.681
4.3971	12.763
4.3748	12.832
4.3528	12.901
4.331	12.949
4.3094	13.001
4.288	13.049
4.2668	13.117
4.2458	13.146
4.2251	13.193
4.2045	13.231
4.1841	13.269
4.164	13.299
4.144	13.304
4.1242	13.337
4.1046	13.353
4.0852	13.365
4.066	13.374
4.047	13.382
4.0281	13.374
4.0094	13.373
3.9909	13.348
3.9725	13.333
3.9544	13.322
3.9363	13.307
3.9185	13.284
3.9008	13.249
3.8833	13.21
3.8659	13.145
3.8487	13.073
3.8316	13.01
3.8147	12.952
3.7979	12.882
3.7813	12.815
3.7648	12.737
3.7485	12.656
3.7323	12.577
3.7162	12.464
3.7003	12.386
3.6845	12.297
3.6689	12.184
3.6534	12.073
3.638	11.953
3.6227	11.823
3.6076	11.693
3.5926	11.539
3.5777	11.364
3.563	11.242
3.5484	11.104
3.5338	10.938
3.5195	10.8
3.5052	10.642
3.491	10.537
3.477	10.42
3.463	10.29
3.4492	10.146
3.4355	9.9992
3.4219	9.8288
3.4084	9.688
3.395	9.5913
3.3817	9.4724
3.3685	9.355
3.3554	9.2221
3.3425	9.0937
3.3296	8.9409
3.3168	8.7961
3.3041	8.6211
3.2915	8.4761
3.279	8.3025
3.2666	8.1208
3.2543	7.9197
3.2421	7.7246
3.23	7.5068
3.218	7.2685
3.206	7.0185
3.1942	6.7541
3.1824	6.4685
3.1707	6.1892
3.1591	5.886
3.1476	5.5932
3.1362	5.2886
3.1249	4.9731
3.1136	4.6641
3.1024	4.3721
3.0913	4.0784
3.0803	3.7915
3.0694	3.5071
3.0585	3.2566
3.0477	3.0193
3.037	2.7974
3.0264	2.6047
3.0158	2.4199
3.0053	2.26
2.9949	2.0998
2.9845	1.9658
2.9743	1.8481
2.9641	1.7483
2.9539	1.6457
2.9439	1.5488
2.9339	1.5027
2.9239	1.4727
2.9141	1.4839
2.9043	1.5491
2.8946	1.6269
2.8849	1.7253
2.8753	1.7847
2.8658	1.7974
2.8563	1.7602
2.8469	1.7168
2.8375	1.6331
2.8282	1.5513
2.819	1.4983
2.8098	1.4758
2.8007	1.584
2.7917	1.8569
2.7827	2.4404
2.7738	3.2795
2.7649	3.821
2.7561	4.0283
2.7473	4.2097
2.7386	4.6731
2.7299	5.2295
2.7213	6.4883
2.7128	9.1616
2.7043	11.243
2.6959	12.202
2.6875	12.887
2.6791	13.453
2.6709	13.849
2.6626	14.101
2.6545	14.247
2.6463	14.368
2.6382	14.466
2.6302	14.525
2.6222	14.563
2.6143	14.608
2.6064	14.593
2.5986	14.607
2.5908	14.641
2.583	14.626
2.5753	14.661
2.5677	14.699
2.5601	14.748
2.5525	14.764
2.545	14.824
2.5375	14.877
2.5301	14.877
2.5227	14.926
2.5154	14.937
2.5081	15.001
2.5008	15
2.4936	15.047
2.4864	15.054
2.4793	15.143
2.4722	15.219
2.4651	15.294
2.4581	15.437
2.4511	15.543
2.4442	15.545
2.4373	15.599
2.4305	15.568
2.4236	15.592
2.4169	15.5
2.4101	15.497
2.4034	15.399
2.3967	15.325
2.3901	15.237
2.3835	15.169
2.377	15.003
2.3704	14.715
2.364	14.419
2.3575	14.172
2.3511	14.036
2.3447	13.986
2.3384	14.001
2.3321	14.128
2.3258	14.281
2.3195	14.427
2.3133	14.456
2.3071	14.569
2.301	14.648
2.2949	14.783
2.2888	14.907
2.2828	14.954
2.2767	14.991
2.2708	14.888
2.2648	14.713
2.2589	14.541
2.253	14.481
2.2471	14.752
2.2413	15.219
2.2355	15.682
2.2297	15.892
2.224	16.043
2.2183	16.232
2.2126	16.24
2.207	16.272
2.2013	16.323
2.1957	16.35
2.1902	16.387
2.1846	16.382
2.1791	16.396
2.1736	16.425
2.1682	16.428
2.1628	16.448
2.1574	16.431
2.152	16.421
2.1466	16.404
2.1413	16.435
2.136	16.453
2.1308	16.364
2.1255	16.352
2.1203	16.378
2.1151	16.367
2.11	16.374
2.1048	16.363
2.0997	16.284
2.0946	16.373
2.0895	16.404
2.0845	16.329
2.0795	16.255
