Name: Acmite NaFe+3Si2O6
Type: Mineral
Class: Silicates
Subclass: Inosilicates (Pyroxene Group - single chain)
Particle Size: Fine (less than 2 Micrometers)
Sample No.: acmite.2
Owner: JHU
Wavelength Range: IR
Origin: Sample from Kangerdluarssuk, near Narssaq, Greenland via
Description: The sample consisted of large (up to 2 cm long and
Measurement: Transmission
X Units: Wavelength (micrometers)
Y Units: Transmittance (percent)
wavelength	value
25.044	68.9061
24.339	76.1092
23.672	76.2967
23.041	71.7361
22.442	63.1717
21.874	53.1424
21.334	45.66
20.82	47.4628
20.33	53.2518
19.863	54.0331
19.416	64.0701
18.99	70.7342
18.581	68.699
18.19	65.8055
17.815	62.9159
17.455	70.576
17.109	79.9939
16.777	85.2469
16.458	87.3787
16.15	87.8797
15.854	84.9724
15.568	75.534
15.292	83.4334
15.027	88.7468
14.77	89.5642
14.521	89.7625
14.281	89.5925
14.049	89.1453
13.824	88.2561
13.607	87.7132
13.396	88.8826
13.191	89.0994
12.993	88.9763
12.8	88.5193
12.614	88.3167
12.432	87.4378
12.256	86.2674
12.084	83.8328
11.918	79.9554
11.755	73.3006
11.598	69.9246
11.444	67.0667
11.294	61.0721
11.149	54.514
11.007	48.1815
10.868	43.4052
10.733	38.3905
10.602	34.4042
10.473	30.9555
10.348	29.873
10.225	32.497
10.106	35.0849
9.989	34.1083
9.875	32.2602
9.763	31.6195
9.654	31.2992
9.547	30.4706
9.443	30.9985
9.341	33.6767
9.241	38.4628
9.143	45.8031
9.047	54.3739
8.954	62.3729
8.862	68.2108
8.772	72.7562
8.684	76.7439
8.597	79.6028
8.513	82.116
8.43	84.6697
8.348	87.1736
8.268	89.3259
8.19	91.0342
8.113	92.2224
8.037	93.2214
7.963	93.7686
7.891	94.2693
7.819	94.8474
7.749	95.2449
7.68	95.5215
7.613	95.7078
7.546	95.8411
7.481	95.9529
7.417	96.0605
7.353	96.2285
7.291	96.3623
7.23	96.4512
7.17	96.616
7.111	96.8008
7.053	96.9402
6.996	97.041
6.94	97.1155
6.885	97.2334
6.83	97.3215
6.777	97.4475
6.724	97.4939
6.672	97.4668
6.621	97.4309
6.571	97.5183
6.521	97.4988
6.472	97.3889
6.424	97.2693
6.377	97.125
6.33	96.9736
6.284	96.7781
6.238	96.541
6.194	96.2559
6.15	96.0691
6.106	96.2744
6.063	96.5281
6.021	96.8533
5.979	97.1316
5.938	97.6621
5.898	97.9802
5.858	98.1848
5.818	98.2922
5.779	98.3298
5.741	98.4519
5.703	98.4514
5.666	98.5535
5.629	98.6211
5.592	98.6631
5.556	98.822
5.521	98.8301
5.486	98.8699
5.451	98.9265
5.417	98.96
5.383	98.8926
5.35	98.947
5.317	98.9753
5.285	98.9853
5.252	99.0251
5.221	99.0059
5.189	99.0398
5.158	99.1169
5.128	99.1572
5.097	99.2048
5.068	99.1748
5.038	99.1599
5.009	99.1951
4.98	99.219
4.951	99.2561
4.923	99.2224
4.895	99.2541
4.868	99.2253
4.84	99.2556
4.814	99.2493
4.787	99.2449
4.76	99.2698
4.734	99.2786
4.709	99.2361
4.683	99.2273
4.658	99.199
4.633	99.2253
4.608	99.1912
4.584	99.1999
4.56	99.1697
4.536	99.1467
4.512	99.1213
4.488	99.1111
4.465	99.1077
4.442	99.0442
4.42	99.0627
4.397	99.0144
4.375	99.0369
4.353	98.9934
4.331	98.9944
4.309	98.9695
4.288	98.9944
4.267	98.9792
4.246	99.0095
4.225	99.0144
4.205	98.9729
4.184	98.8874
4.164	98.949
4.144	98.9314
4.124	98.8894
4.105	98.9206
4.085	98.8655
4.066	98.8562
4.047	98.8577
4.028	98.7996
4.009	98.7742
3.991	98.7097
3.973	98.7014
3.954	98.7156
3.936	98.6775
3.918	98.6882
3.901	98.6287
3.883	98.5105
3.866	98.3928
3.849	98.4285
3.832	98.3689
3.815	98.3171
3.798	98.2693
3.781	98.24
3.765	98.1252
3.748	98.0491
3.732	97.9792
3.716	97.9202
3.7	97.8186
3.685	97.7932
3.669	97.7073
3.653	97.6682
3.638	97.6228
3.623	97.5847
3.608	97.3962
3.593	97.3791
3.578	97.2273
3.563	97.2742
3.548	97.1384
3.534	97.0295
3.519	96.8494
3.505	96.637
3.491	96.6565
3.477	96.5662
3.463	96.5276
3.449	96.4304
3.435	96.1721
3.422	95.9182
3.408	95.9177
3.395	95.9612
3.382	95.842
3.369	95.8401
3.355	95.8245
3.342	95.7659
3.33	95.7302
3.317	95.5081
3.304	95.4041
3.292	95.3674
3.279	95.2776
3.267	95.24
3.254	95.0652
3.242	94.9089
3.23	94.7419
3.218	94.6853
3.206	94.5837
3.194	94.4705
3.182	94.3259
3.171	94.2351
3.159	94.0349
3.148	93.8435
3.136	93.74
3.125	93.5584
3.114	93.4353
3.102	93.325
3.091	93.1697
3.08	93.0603
3.069	92.9959
3.058	92.8103
3.048	92.7117
3.037	92.5867
3.026	92.3445
3.016	92.1482
3.005	91.9617
2.995	91.8289
2.985	91.7166
2.974	91.5193
2.964	91.156
2.954	90.988
2.944	90.9841
2.934	90.8289
2.924	90.7888
2.914	90.7713
2.904	90.8132
2.895	91.0701
2.885	91.2869
2.875	91.5603
2.866	91.8367
2.856	92.197
2.847	92.3953
2.838	92.6296
2.828	92.9255
2.819	93.1091
2.81	93.5037
2.801	93.7429
2.792	94.283
2.783	94.7361
2.774	95.2615
2.765	95.7742
2.756	96.4412
2.747	97.0408
2.739	97.4099
2.73	97.6023
2.721	97.7224
2.713	97.8132
2.704	97.9646
2.696	97.9265
2.687	97.9958
2.679	97.9539
2.671	97.9783
2.663	97.9568
2.654	97.8357
2.646	97.7742
2.638	97.7478
2.63	97.6501
2.622	97.7712
2.614	97.6658
2.606	97.6677
2.599	97.654
2.591	97.7908
2.583	97.7419
2.575	97.6443
2.568	97.4138
2.56	97.4978
2.553	97.4255
2.545	97.488
2.538	97.5037
2.53	97.3669
2.523	97.3474
2.515	97.4216
2.508	97.3708
2.501	97.3689
2.494	97.2888
2.486	97.3201
2.479	97.4021
2.472	97.2537
2.465	97.3357
2.458	97.3689
2.451	97.1677
2.444	96.947
2.437	97.1892
2.43	97.3396
2.424	97.0896
2.417	97.0876
2.41	97.2439
2.403	96.9646
2.397	97.0564
2.39	96.8845
2.384	97.0642
2.377	97.1814
2.37	97.0779
2.364	96.8826
2.358	96.7048
2.351	96.7263
2.345	97.156
2.338	96.8533
2.332	96.9138
2.326	96.8123
2.32	96.8376
2.313	96.9451
2.307	96.8689
2.301	96.8533
2.295	97.0251
2.289	97.0349
2.283	96.6638
2.277	96.7283
2.271	96.613
2.265	96.6794
2.259	96.7927
2.253	96.8552
2.247	96.7302
2.241	96.7146
2.236	96.8318
2.23	96.6013
2.224	96.4998
2.218	96.7185
2.213	96.6873
2.207	96.7029
2.201	96.7302
2.196	96.7419
2.19	96.5818
2.185	96.6716
2.179	96.5466
2.174	96.656
2.168	96.6716
2.163	96.824
2.157	96.7693
2.152	96.5818
2.147	96.4607
2.141	96.7068
2.136	96.656
2.131	96.6794
2.126	96.4568
2.12	96.7966
2.115	96.5232
2.11	96.6013
2.105	96.2107
2.1	96.6873
2.095	96.4998
2.09	96.7068
2.085	96.6873
2.079	96.2263
