Name: Norite
Type: Rocks
Class: Igneous
Subclass: Mafic
Particle Size: Solid
Sample No.: Norite.H1
Owner: JHU
Origin: from Wollaston Twp., Ontario, Canada, via Ward's Scientific (Cat.
Description: A dark green to black, coarse-grained rock composed of gray
Measurement: Directional (10 degree) hemispherical reflectance
X Units: Wavelength (micrometers)
Y Units: Reflectance (percent)
wavelength	value
14.0112	1.8682
13.7147	2.794
13.4304	3.0698
13.1577	3.0476
12.8959	3.0073
12.6443	2.9393
12.4023	3.3132
12.1694	3.9354
11.945	4.6
11.7289	5.3028
11.5203	5.9039
11.3191	6.5964
11.1248	7.6462
10.937	8.8434
10.7555	10.1721
10.5799	11.9519
10.4099	13.0917
10.2454	14.1204
10.0859	14.9573
9.9313	14.9812
9.7814	13.855
9.636	13.1062
9.4948	12.2386
9.3577	10.5431
9.2245	8.3156
9.095	7.0688
8.9691	6.3225
8.8467	6.5316
8.7275	7.4833
8.6116	7.0184
8.4986	5.7732
8.3886	5.3651
8.2814	4.1025
8.1769	2.5139
8.075	1.6868
7.9756	1.3535
7.8786	1.2314
7.784	1.2314
7.6916	1.3226
7.6014	1.3676
7.5133	1.4402
7.4272	1.5361
7.343	1.6587
7.2607	1.7582
7.1803	1.8663
7.1016	1.9948
7.0246	2.1059
6.9493	2.2005
6.8755	2.3182
6.8034	2.3857
6.7327	2.4736
6.6634	2.5441
6.5956	2.5685
6.5292	2.5912
6.464	2.5704
6.4002	2.5525
6.3376	2.5475
6.2762	2.5239
6.216	2.5476
6.157	2.5821
6.099	2.6377
6.0421	2.6967
5.9863	2.7136
5.9315	2.7558
5.8777	2.8525
5.8249	2.9838
5.773	3.0945
5.722	3.1961
5.6719	3.262
5.6227	3.3501
5.5744	3.4683
5.5268	3.611
5.4801	3.7429
5.4341	3.8698
5.3889	3.9036
5.3445	3.9413
5.3008	4.0551
5.2578	4.181
5.2154	4.3572
5.1738	4.4771
5.1328	4.5652
5.0925	4.6725
5.0528	4.815
5.0137	4.9146
4.9752	5.1054
4.9373	5.2842
4.9	5.5441
4.8632	5.8122
4.827	6.0637
4.7913	6.3
4.7561	6.5756
4.7215	6.8909
4.6873	7.2321
4.6536	7.5989
4.6205	7.9966
4.5877	8.396
4.5555	8.7818
4.5237	9.0623
4.4923	9.2629
4.4614	9.4706
4.4309	9.7971
4.4008	10.241
4.3711	10.6919
4.3418	11.0735
4.3129	11.4117
4.2844	11.7319
4.2563	12.0272
4.2285	12.3152
4.2011	12.5602
4.174	12.8015
4.1473	12.9982
4.1209	13.1714
4.0949	13.3607
4.0692	13.5229
4.0438	13.6654
4.0187	13.7594
3.994	13.8441
3.9695	13.942
3.9453	14.1039
3.9214	14.2282
3.8979	14.322
3.8746	14.3803
3.8515	14.4324
3.8288	14.4857
3.8063	14.5371
3.7841	14.5314
3.7621	14.5525
3.7404	14.4956
3.7189	14.4932
3.6977	14.4529
3.6767	14.3826
3.656	14.3109
3.6355	14.2017
3.6152	14.0688
3.5951	13.9153
3.5753	13.7132
3.5557	13.4815
3.5363	13.2525
3.5171	12.6537
3.4981	12.1574
3.4793	12.2488
3.4607	12.0987
3.4423	11.6355
3.4241	10.8269
3.4061	10.9605
3.3883	11.0719
3.3707	11.0409
3.3533	11.1592
3.336	11.1628
3.3189	11.0803
3.302	10.9462
3.2853	10.7702
3.2687	10.5743
3.2523	10.3633
3.2361	10.1585
3.22	9.9056
3.204	9.6789
3.1883	9.4446
3.1727	9.1758
3.1572	8.9657
3.1419	8.714
3.1268	8.5137
3.1117	8.2741
3.0969	8.1007
3.0821	7.921
3.0675	7.74
3.0531	7.6188
3.0388	7.4847
3.0246	7.3683
3.0105	7.2635
2.9966	7.11
2.9828	7.0404
2.9692	6.9776
2.9556	6.9445
2.9422	6.8833
2.9289	6.9429
2.9157	6.9919
2.9027	6.9987
2.8897	7.0335
2.8769	7.0404
2.8642	7.1192
2.8516	7.1901
2.8391	7.2314
2.8267	7.1831
2.8144	7.1465
2.8022	7.2398
2.7902	7.241
2.7782	6.3148
2.7664	5.7883
2.7546	5.6384
2.7429	5.8423
2.7314	6.1763
2.7199	6.6867
2.7085	7.5347
2.6973	8.7823
2.6861	12.6799
2.675	16.2028
2.664	17.0488
2.6531	17.4464
2.6423	17.7846
2.6315	18.0163
2.6209	18.0513
2.6103	18.1005
2.5999	18.1727
2.5895	18.2477
2.5792	18.2894
2.569	18.3412
2.5588	18.3794
2.5487	18.4605
2.5388	18.5048
2.5289	18.5261
2.519	18.5849
2.5093	18.647
2.4996	18.7113
2.49	18.7668
2.4805	18.8802
2.471	19.0719
2.4616	19.2276
2.4523	19.4418
2.4431	19.4768
2.4339	19.4821
2.4248	19.2927
2.4157	18.9738
2.4068	18.5634
2.3979	18.2747
2.389	18.1734
2.3802	18.454
2.3715	18.574
2.3629	18.3007
2.3543	17.6878
2.3458	17.1508
2.3373	17.0093
2.3289	17.0106
2.3206	17.1776
2.3123	17.43
2.3041	17.7564
2.2959	18.2833
2.2878	19.5051
2.2798	20.8117
2.2718	21.5051
2.2638	21.4757
2.2559	21.2043
2.2481	21.3511
2.2403	22.5002
2.2326	23.3303
2.225	23.7553
2.2173	23.9388
2.2098	23.9819
2.2023	24.036
2.1948	24.1984
2.1874	24.4235
2.18	24.648
2.1727	24.8537
2.1655	25.019
2.1583	25.1852
2.1511	25.2729
2.144	25.3954
2.1369	25.4407
2.1299	25.5771
2.1229	25.6384
2.116	25.7392
2.1091	25.9472
2.1023	26.1012
2.0955	26.2506
2.0887	26.4135
2.082	26.5202
2.06	26.4761
2.028	26.5186
1.996	26.4803
1.964	26.4722
1.932	26.1522
1.9	25.5526
1.868	26.6897
1.836	27.1126
1.804	27.2818
1.772	27.2492
1.74	27.4367
1.708	27.5882
1.676	27.6239
1.644	27.7417
1.612	28.0698
1.58	27.929
1.548	28.0593
1.516	28.1994
1.484	28.0379
1.452	27.8699
1.42	27.579
1.388	27.8565
1.356	27.8753
1.324	27.8687
1.292	27.6821
1.26	27.7475
1.228	27.4255
1.196	27.3196
1.164	27.2736
1.132	27.3501
1.1	27.1773
1.068	27.0625
1.036	26.8615
1.004	26.953
0.972	26.7913
0.94	26.8947
0.908	27.0882
0.876	27.3385
0.844	27.4289
0.812	28.0615
0.795	28.2279
0.787	28.3316
0.779	28.6823
0.771	28.4407
0.763	28.6584
0.755	28.5585
0.747	28.7335
0.739	28.7543
0.731	28.7727
0.723	28.8599
0.715	28.823
0.707	28.6554
0.699	28.8171
0.691	28.7012
0.683	28.6841
0.675	28.6354
0.667	28.7635
0.659	28.6871
0.651	28.8891
0.643	28.8172
0.635	28.8294
0.627	28.7867
0.619	28.7594
0.611	29.0888
0.603	28.9745
0.595	29.1536
0.587	29.0295
0.579	29.1034
0.571	29.0928
0.563	29.1042
0.555	29.4586
0.547	29.4435
0.539	29.4299
0.531	29.3136
0.523	29.0503
0.515	29.3532
0.507	29.1339
0.499	29.0822
0.491	29.2449
0.483	28.9502
0.475	28.7801
0.467	28.96
0.459	28.2669
0.451	28.4513
0.443	28.2785
0.435	28.1539
0.427	28.0454
0.419	27.7468
0.411	27.616
0.403	27.4441
