Name: Orgueil.2
Type: Stony Meteorites
Class: Carbonaceous Chondrite
Subclass: CI
Particle Size: 0-75 micrometers
Sample No.: Orgueil.2
Owner: JHU
Origin: Meteorite seen to fall in France in 1864..  Arizona State University
Description: None.
Measurement: Bidirectional reflectance
X Units: Wavelength (micrometers)
Y Units: Reflectance (percent)
wavelength	value
25.044	0.7393
24.339	0.6985
23.672	0.686
23.041	0.7441
22.442	0.8154
21.874	0.7368
21.334	0.7139
20.82	0.6428
20.33	0.5874
19.863	0.5073
19.416	0.4495
18.99	0.3745
18.581	0.3599
18.19	0.3755
17.815	0.3977
17.455	0.3977
17.109	0.3738
16.777	0.3762
16.458	0.3574
16.15	0.3706
15.854	0.3423
15.568	0.3335
15.292	0.3582
15.027	0.3198
14.77	0.3403
14.521	0.3293
14.281	0.3335
14.049	0.3542
13.824	0.3691
13.607	0.4282
13.396	0.4526
13.191	0.4836
12.993	0.5161
12.8	0.5425
12.614	0.5784
12.432	0.5994
12.256	0.6228
12.084	0.6631
11.918	0.6724
11.755	0.7004
11.598	0.7112
11.444	0.7205
11.294	0.7092
11.149	0.7112
11.007	0.6965
10.868	0.6418
10.733	0.5701
10.602	0.5225
10.473	0.4863
10.348	0.4685
10.225	0.4661
10.106	0.4746
9.9887	0.4624
9.8746	0.4724
9.763	0.4844
9.6539	0.4697
9.5472	0.4338
9.4429	0.387
9.3408	0.3574
9.2409	0.3281
9.1431	0.3108
9.0474	0.3018
8.9536	0.3003
8.8618	0.3015
8.7718	0.3
8.6837	0.3203
8.5973	0.3213
8.5126	0.3286
8.4295	0.3396
8.3481	0.3542
8.2682	0.3816
8.1898	0.4299
8.1129	0.5029
8.0374	0.5945
7.9634	0.6973
7.8906	0.8035
7.8192	0.8884
7.7491	0.9529
7.6802	1.0005
7.6126	1.0256
7.5461	1.0557
7.4807	1.0825
7.4165	1.0967
7.3534	1.1189
7.2914	1.1238
7.2303	1.1157
7.1703	1.1133
7.1113	1.094
7.0533	1.0869
6.9962	1.0752
6.94	1.0823
6.8847	1.0981
6.8302	1.1394
6.7767	1.2004
6.7239	1.2327
6.672	1.2432
6.6209	1.2307
6.5705	1.2092
6.5209	1.1902
6.4721	1.1724
6.424	1.1421
6.3766	1.1147
6.3299	1.0796
6.2838	1.0374
6.2385	0.9734
6.1937	0.8887
6.1496	0.7991
6.1062	0.7654
6.0633	0.772
6.0211	0.8147
5.9794	0.8823
5.9383	0.9778
5.8978	1.106
5.8578	1.2195
5.8184	1.312
5.7794	1.4006
5.741	1.4658
5.7031	1.5239
5.6657	1.5713
5.6288	1.6086
5.5924	1.6433
5.5564	1.6689
5.5209	1.6924
5.4859	1.7126
5.4513	1.7363
5.4171	1.7429
5.3833	1.7683
5.35	1.7742
5.3171	1.7861
5.2846	1.7993
5.2524	1.8044
5.2207	1.8135
5.1893	1.8271
5.1584	1.8435
5.1277	1.8567
5.0975	1.8655
5.0676	1.8662
5.038	1.8796
5.0088	1.8914
4.98	1.8933
4.9514	1.8938
4.9232	1.8945
4.8953	1.8943
4.8678	1.8945
4.8405	1.8935
4.8135	1.8916
4.7868	1.8855
4.7605	1.886
4.7344	1.8787
4.7086	1.8752
4.6831	1.8708
4.6578	1.8811
4.6328	1.8811
4.6081	1.8801
4.5837	1.8823
4.5595	1.8826
4.5356	1.887
4.5119	1.8857
4.4884	1.8821
4.4652	1.8894
4.4423	1.8887
4.4196	1.8945
4.3971	1.9006
4.3748	1.8984
4.3528	1.9004
4.331	1.9033
4.3094	1.9033
4.288	1.9016
4.2668	1.9028
4.2458	1.9043
4.2251	1.9087
4.2045	1.9102
4.1841	1.9055
4.164	1.9065
4.144	1.9045
4.1242	1.9094
4.1046	1.9045
4.0852	1.895
4.066	1.9004
4.047	1.8918
4.0281	1.8943
4.0094	1.8901
3.9909	1.8784
3.9725	1.8696
3.9544	1.8623
3.9363	1.8603
3.9185	1.8506
3.9008	1.8452
3.8833	1.8491
3.8659	1.8354
3.8487	1.8315
3.8316	1.8232
3.8147	1.8076
3.7979	1.8018
3.7813	1.7917
3.7648	1.7761
3.7485	1.7617
3.7323	1.7515
3.7162	1.7351
3.7003	1.7209
3.6845	1.7012
3.6689	1.6885
3.6534	1.6724
3.638	1.6497
3.6227	1.6328
3.6076	1.6145
3.5926	1.5945
3.5777	1.5762
3.563	1.5457
3.5484	1.5317
3.5338	1.5027
3.5195	1.4607
3.5052	1.4155
3.491	1.3862
3.477	1.3699
3.463	1.3528
3.4492	1.3242
3.4355	1.2847
3.4219	1.238
3.4084	1.2168
3.395	1.2007
3.3817	1.1772
3.3685	1.1716
3.3554	1.1672
3.3425	1.1536
3.3296	1.1387
3.3168	1.1145
3.3041	1.0957
3.2915	1.0681
3.279	1.0439
3.2666	1.0193
3.2543	0.9936
3.2421	0.9687
3.23	0.9451
3.218	0.9216
3.206	0.8928
3.1942	0.8687
3.1824	0.8403
3.1707	0.8208
3.1591	0.7944
3.1476	0.7793
3.1362	0.7585
3.1249	0.7444
3.1136	0.7341
3.1024	0.7231
3.0913	0.7104
3.0803	0.7009
3.0694	0.6938
3.0585	0.6902
3.0477	0.6802
3.037	0.6692
3.0264	0.6702
3.0158	0.6589
3.0053	0.6467
2.9949	0.6379
2.9845	0.6343
2.9743	0.6238
2.9641	0.6228
2.9539	0.6184
2.9439	0.6165
2.9339	0.6184
2.9239	0.6108
2.9141	0.5984
2.9043	0.6074
2.8946	0.604
2.8849	0.5977
2.8753	0.6077
2.8658	0.602
2.8563	0.6123
2.8469	0.6062
2.8375	0.6099
2.8282	0.616
2.819	0.6208
2.8098	0.6199
2.8007	0.6384
2.7917	0.6487
2.7827	0.6709
2.7738	0.6748
2.7649	0.6909
2.7561	0.7078
2.7473	0.7263
2.7386	0.7471
2.7299	0.73
2.7213	0.697
2.7128	0.6467
2.7043	0.7546
2.6959	0.998
2.6875	1.2349
2.6791	1.4436
2.6709	1.5127
2.6626	1.5515
2.6545	1.5659
2.6463	1.5691
2.6382	1.5771
2.6302	1.5786
2.6222	1.5776
2.6143	1.582
2.6064	1.5684
2.5986	1.5815
2.5908	1.5886
2.583	1.5706
2.5753	1.571
2.5677	1.5686
2.5601	1.5698
2.5525	1.5596
2.545	1.5808
2.5375	1.5681
2.5301	1.5518
2.5227	1.5676
2.5154	1.5664
2.5081	1.563
2.5008	1.5513
2.4936	1.552
2.4864	1.5552
2.4793	1.5576
2.4722	1.5317
2.4651	1.5361
2.4581	1.5327
2.4511	1.5349
2.4442	1.5156
2.4373	1.5122
2.4305	1.5142
2.4236	1.511
2.4169	1.5051
2.4101	1.512
2.4034	1.519
2.3967	1.4998
2.3901	1.5029
2.3835	1.5041
2.377	1.5137
2.3704	1.5037
2.364	1.5132
2.3575	1.533
2.3511	1.4993
2.3447	1.5207
2.3384	1.5173
2.3321	1.4968
2.3258	1.5061
2.3195	1.4963
2.3133	1.4995
2.3071	1.4766
2.301	1.4912
2.2949	1.4907
2.2888	1.5015
2.2828	1.4958
2.2767	1.4856
2.2708	1.4915
2.2648	1.4983
2.2589	1.4812
2.253	1.5088
2.2471	1.4883
2.2413	1.4807
2.2355	1.4812
2.2297	1.4912
2.224	1.4934
2.2183	1.4673
2.2126	1.4807
2.207	1.4658
2.2013	1.469
2.1957	1.4683
2.1902	1.4582
2.1846	1.4631
2.1791	1.4893
2.1736	1.4812
2.1682	1.4653
2.1628	1.4717
2.1574	1.4624
2.152	1.4807
2.1466	1.4788
2.1413	1.4724
2.136	1.4775
2.1308	1.468
2.1255	1.4641
2.1203	1.4631
2.1151	1.4507
2.11	1.4785
2.1048	1.4722
2.0997	1.4653
2.0946	1.4546
2.0895	1.477
2.0845	1.4653
2.0795	1.467
