Name: Leucite KAlSi2O6
Type: Mineral
Class: Silicates
Subclass: Tectosilicates (Framework Silicates); (Feldspathoid Group)
Particle Size: Fine  (0-74 micrometers)
Sample No.: leucite.1
Owner: JHU
Wavelength Range: IR
Origin: Lake Latium, Italy via the Smithsonian (sample no. NMNH
Description: The sample was a single small crystal, 1 cm in diameter
Measurement: Bidirectional reflectance
X Units: Wavelength (micrometers)
Y Units: Reflectance (percent)
wavelength	value
25.0442	1.7422
24.3388	1.668
23.6719	1.6631
23.0407	1.7305
22.4422	1.5122
21.8741	1.167
21.334	1.0181
20.8199	0.9097
20.33	0.6533
19.8627	0.7561
19.4163	1.2463
18.9896	1.3699
18.5812	1.2036
18.19	1.5625
17.815	2.949
17.4551	3.436
17.1094	3.0383
16.7772	2.2642
16.4576	1.6128
16.15	1.7852
15.8537	1.4663
15.568	1.1897
15.2925	1.7739
15.0265	1.8894
14.7697	1.7021
14.5214	1.4519
14.2814	1.22
14.0492	1.1328
13.8244	1.0244
13.6067	0.9807
13.3957	0.9224
13.1912	0.9099
12.9929	0.8713
12.8004	0.8191
12.6135	1.0527
12.432	1.7717
12.2557	2.2976
12.0843	2.5378
11.9176	3.6848
11.7555	3.9363
11.5977	3.8191
11.444	3.6147
11.2944	3.1865
11.1487	2.6296
11.0067	2.2356
10.8682	1.957
10.7332	1.699
10.6015	1.4617
10.473	1.4311
10.3476	1.4092
10.2251	1.3874
10.1056	1.3989
9.98873	1.3777
9.87458	1.4424
9.763	1.5344
9.65392	1.6184
9.54724	1.6924
9.44291	1.7976
9.34082	1.8503
9.24091	1.7009
9.14312	1.5876
9.04739	1.5442
8.95363	1.604
8.8618	1.6689
8.77183	1.7556
8.68368	1.8394
8.59727	1.9585
8.51257	2.0132
8.42951	1.824
8.34807	1.3806
8.26819	0.8718
8.18981	0.4717
8.11292	0.3201
8.03745	0.4124
7.96337	0.7415
7.89064	1.2139
7.81924	1.8027
7.74911	2.3953
7.68023	2.9668
7.61256	3.4773
7.54608	3.9458
7.48074	4.3704
7.41653	4.7851
7.35341	5.1824
7.29136	5.5032
7.23034	5.7641
7.17033	5.9814
7.11132	6.1704
7.05327	6.3039
6.99616	6.4199
6.93996	6.5056
6.88467	6.5227
6.83024	6.5246
6.77667	6.5693
6.72393	6.6172
6.67201	6.7004
6.62089	6.8642
6.57054	7.0305
6.52095	7.1579
6.4721	7.1767
6.42398	7.083
6.37657	6.9555
6.32986	6.8867
6.28382	6.8852
6.23845	6.9199
6.19373	6.8782
6.14965	6.7007
6.10619	6.7795
6.06334	7.1648
6.02109	7.447
5.97942	7.5654
5.93832	7.5615
5.89778	7.4966
5.8578	7.3857
5.81835	7.2417
5.77943	7.1733
5.74103	7.1909
5.70314	7.2666
5.66574	7.4331
5.62883	7.6645
5.5924	7.9651
5.55644	8.2698
5.52093	8.5886
5.48588	8.8938
5.45127	9.1863
5.41709	9.4748
5.38334	9.8003
5.35	10.1921
5.31708	10.6101
5.28456	11.0288
5.25243	11.3979
5.2207	11.7043
5.18934	11.9443
5.15836	12.1513
5.12775	12.33
5.09749	12.4353
5.0676	12.4585
5.03805	12.4919
5.00884	12.5322
4.97998	12.561
4.95144	12.5813
4.92322	12.6067
4.89533	12.6555
4.86775	12.7517
4.84048	12.8965
4.81351	13.0503
4.78684	13.2268
4.76047	13.3816
4.73439	13.5263
4.70859	13.6491
4.68306	13.7993
4.65782	14.0019
4.63284	14.2492
4.60814	14.4963
4.58369	14.7629
4.5595	14.9983
4.53557	15.2114
4.51188	15.4062
4.48845	15.5974
4.46525	15.7666
4.44229	15.9116
4.41957	16.1113
4.39708	16.2878
4.37481	16.4611
4.35277	16.6225
4.33096	16.7578
4.30935	16.8671
4.28797	16.9606
4.26679	17.041
4.24583	17.0915
4.22506	17.1301
4.2045	17.156
4.18414	17.1796
4.16398	17.1928
4.14401	17.1826
4.12423	17.1955
4.10464	17.2214
4.08523	17.2512
4.066	17.2793
4.04696	17.2919
4.02809	17.3056
4.0094	17.3286
3.99088	17.3378
3.97253	17.34
3.95435	17.3615
3.93634	17.372
3.91848	17.4018
3.90079	17.4257
3.88326	17.4338
3.86589	17.4191
3.84867	17.4152
3.8316	17.3928
3.81468	17.3842
3.79791	17.3632
3.78129	17.3237
3.76482	17.3098
3.74848	17.2802
3.73229	17.2482
3.71624	17.2026
3.70032	17.1669
3.68454	17.1088
3.6689	17.0568
3.65338	17.0258
3.638	16.9853
3.62275	16.9455
3.60762	16.8955
3.59262	16.8435
3.57775	16.7878
3.56299	16.7072
3.54836	16.6201
3.53385	16.4931
3.51945	16.2927
3.50517	15.8295
3.49101	15.9116
3.47696	15.9316
3.46303	15.9238
3.4492	15.7854
3.43549	15.5634
3.42188	15.0886
3.40838	15.144
3.39499	15.4951
3.38171	15.5056
3.36852	15.6325
3.35544	15.8059
3.34246	15.8894
3.32958	15.8862
3.3168	15.8615
3.30411	15.823
3.29153	15.7617
3.27903	15.6989
3.26664	15.6247
3.25433	15.5424
3.24212	15.4775
3.23	15.3874
3.21797	15.3095
3.20603	15.2334
3.19418	15.1372
3.18241	15.0505
3.17074	14.9602
3.15914	14.863
3.14763	14.7456
3.13621	14.6223
3.12487	14.4968
3.11361	14.3745
3.10243	14.2234
3.09133	14.1189
3.0803	14.0212
3.06936	13.9372
3.0585	13.8435
3.04771	13.8037
3.037	13.7319
3.02636	13.6535
3.0158	13.5683
3.00531	13.4524
2.99489	13.3762
2.98454	13.2685
2.97427	13.1411
2.96407	13.04
2.95393	12.9528
2.94387	12.8855
2.93387	12.7915
2.92394	12.7165
2.91408	12.6428
2.90429	12.6496
2.89456	12.5893
2.88489	12.5796
2.87529	12.5669
2.86576	12.5434
2.85628	12.5664
2.84687	12.5603
2.83752	12.583
2.82823	12.5705
2.81901	12.5947
2.80984	12.6303
2.80073	12.5874
2.79168	12.4734
2.78269	12.311
2.77376	12.3142
2.76488	12.5454
2.75606	13.1347
2.7473	13.9077
2.73859	14.552
2.72994	15.0686
2.72134	15.6298
2.7128	16.0185
2.70431	16.3151
2.69587	16.8315
2.68748	17.2351
2.67915	17.4226
2.67087	17.5493
2.66264	17.6181
2.65446	17.6162
2.64633	17.6628
2.63825	17.6845
2.63021	17.7165
2.62223	17.7414
2.6143	17.7092
2.60641	17.6723
2.59857	17.747
2.59078	17.7045
2.58304	17.7058
2.57534	17.7275
2.56768	17.6987
2.56008	17.6543
2.55251	17.6269
2.54499	17.6069
2.53752	17.645
2.53009	17.5991
2.5227	17.5927
2.51536	17.5771
2.50806	17.5825
2.5008	17.5737
2.49358	17.5605
2.4864	17.5444
2.47927	17.52
2.47218	17.5424
2.46512	17.4902
2.45811	17.4941
2.45114	17.5288
2.4442	17.5068
2.43731	17.5127
2.43045	17.5195
2.42363	17.5107
2.41685	17.5483
2.41011	17.5307
2.40341	17.5302
2.39674	17.4995
2.39011	17.498
2.38352	17.5009
2.37696	17.4663
2.37044	17.4279
2.36395	17.3955
2.35751	17.4714
2.35109	17.4433
2.34471	17.4047
2.33836	17.3371
2.33205	17.3178
2.32578	17.3088
2.31953	17.3042
2.31332	17.3161
2.30714	17.323
2.301	17.2854
2.29489	17.3037
2.28881	17.2941
2.28276	17.2644
2.27675	17.2192
2.27076	17.2021
2.26481	17.2085
2.25889	17.2148
2.253	17.1816
2.24714	17.1467
2.24131	17.1467
2.23551	17.2324
2.22974	17.1643
2.224	17.1206
2.21829	17.1508
2.21261	17.1291
2.20696	17.1264
2.20134	17.1311
2.19574	17.1552
2.19018	17.1113
2.18464	17.1572
2.17913	17.1076
2.17365	17.1088
2.16819	17.121
2.16277	17.1811
2.15737	17.1811
2.15199	17.1425
2.14665	17.1086
2.14133	17.1379
2.13603	17.1643
2.13077	17.1252
2.12552	17.1857
2.12031	17.1543
2.11512	17.1027
2.10995	17.1916
2.10481	17.1503
2.0997	17.1682
2.09461	17.1386
2.08954	17.2011
2.0845	17.2258
2.07948	17.1994
