Name: Pale brown dry silty clay loam
Type: Soils
Class: Inceptisol
Subclass: Ustocrept
Particle Size: see additional information
Sample No.: 82P2671
Owner: JHU
Origin: Diar Alla Experiment Station.  Jordon, via USDA Soil Conservation
Description: Parent material is irrigated cropland.  Pale brown dry silty clay loam
Measurement: Directional (10 degree) hemispherical reflectance
X Units: Wavelength (micrometers)
Y Units: Reflectance (percent)
wavelength	value
14.94	1.5522
14.645	1.637
14.321	1.4956
14.011	1.3953
13.715	1.7373
13.43	1.7683
13.158	1.8799
12.896	1.9614
12.644	1.956
12.402	1.7524
12.169	1.856
11.945	2.1894
11.729	2.3325
11.52	2.6802
11.319	2.386
11.125	2.3083
10.937	2.1389
10.755	2.1401
10.58	2.2261
10.41	2.4797
10.245	2.6272
10.086	3.1101
9.931	3.4451
9.781	3.7331
9.636	4.194
9.495	4.148
9.358	4.319
9.225	3.883
9.095	3.6218
8.969	3.4829
8.847	3.7993
8.727	4.014
8.612	3.935
8.499	4.776
8.389	5.465
8.281	6.694
8.177	7.608
8.075	7.054
7.976	6.777
7.879	6.523
7.784	6.499
7.692	6.552
7.601	6.176
7.513	5.995
7.427	5.646
7.343	4.797
7.261	3.6885
7.18	2.9482
7.102	3.1367
7.025	2.9028
6.949	2.5815
6.875	2.5193
6.803	2.5334
6.733	2.7246
6.663	2.835
6.596	3.2932
6.529	3.879
6.464	4.298
6.4	4.095
6.338	3.2561
6.276	2.5508
6.216	1.9824
6.157	1.553
6.099	1.3628
6.042	1.4231
5.986	1.5884
5.931	1.8645
5.878	2.3367
5.825	3.0483
5.773	3.5837
5.722	4.133
5.672	4.537
5.623	4.298
5.574	2.5652
5.527	4.188
5.48	5.366
5.434	6.173
5.389	6.031
5.345	5.687
5.301	6.143
5.258	6.981
5.215	8.043
5.174	8.576
5.133	8.738
5.093	8.813
5.053	8.982
5.014	9.103
4.975	9.717
4.937	10.61
4.9	11.682
4.863	12.848
4.827	13.356
4.791	13.691
4.756	13.88
4.721	13.811
4.687	13.121
4.654	13.385
4.62	14.279
4.588	14.802
4.556	15.087
4.524	15.136
4.492	15.052
4.461	15.376
4.431	15.822
4.401	16.375
4.371	16.864
4.342	17.203
4.313	17.26
4.284	17.005
4.256	17.434
4.229	17.795
4.201	18.629
4.174	18.901
4.147	18.99
4.121	18.961
4.095	18.714
4.069	18.023
4.044	16.094
4.019	12.105
3.994	8.047
3.97	6.775
3.945	8.872
3.921	10.943
3.898	11.827
3.875	12.182
3.852	12.59
3.829	13.686
3.806	15.208
3.784	16.969
3.762	17.366
3.74	17.202
3.719	16.899
3.698	16.448
3.677	16.004
3.656	15.464
3.636	14.891
3.615	14.257
3.595	13.657
3.575	12.802
3.556	12.076
3.536	11.095
3.517	9.33
3.498	7.968
3.479	7.088
3.461	7.482
3.442	7.434
3.424	7.148
3.406	6.766
3.388	6.61
3.371	6.294
3.353	5.821
3.336	6.06
3.319	6.013
3.302	5.732
3.285	5.438
3.269	5.102
3.252	4.794
3.236	4.471
3.22	4.259
3.204	3.967
3.188	3.7327
3.173	3.5444
3.157	3.2698
3.142	3.0996
3.127	2.9617
3.112	2.7244
3.097	2.6467
3.082	2.5456
3.067	2.5452
3.053	2.4744
3.039	2.415
3.025	2.3635
3.011	2.2976
2.997	2.2854
2.983	2.2292
2.969	2.1792
2.956	2.0815
2.942	2.1514
2.929	2.1272
2.916	2.1331
2.903	2.1384
2.89	2.189
2.877	2.2473
2.864	2.2192
2.852	2.2781
2.839	2.2805
2.827	2.2654
2.814	2.2495
2.802	2.073
2.79	2.071
2.778	2.0405
2.766	1.8247
2.755	1.8677
2.743	2.1155
2.731	2.7034
2.72	3.5745
2.708	3.1594
2.697	5.073
2.686	11.97
2.675	16.089
2.664	18.641
2.653	21.644
2.642	23.217
2.632	23.232
2.621	23.996
2.61	24.831
2.6	25.052
2.59	25.286
2.579	25.853
2.569	26.163
2.559	26.412
2.549	26.442
2.539	26.359
2.529	26.639
2.519	27.02
2.509	27.385
2.5	27.765
2.49	28.072
2.481	28.72
2.471	29.163
2.462	29.688
2.452	30.178
2.443	30.674
2.434	31.385
2.425	32.004
2.416	32.564
2.407	33
2.398	33.151
2.389	33.134
2.38	33.26
2.372	33.669
2.363	33.852
2.354	34.034
2.346	34.172
2.337	34.694
2.329	35.221
2.321	35.659
2.312	36.04
2.304	36.226
2.296	36.483
2.288	36.915
2.28	37.348
2.272	37.705
2.264	37.478
2.256	37.283
2.248	37.16
2.24	37.22
2.233	37.286
2.225	37.343
2.217	36.994
2.21	35.402
2.202	36.717
2.195	37.573
2.187	38.137
2.18	38.732
2.173	38.952
2.166	39.107
2.158	39.467
2.151	40.039
2.144	40.571
2.137	40.669
2.13	40.793
2.123	40.798
2.116	40.945
2.109	40.786
2.102	40.762
2.095	40.724
2.089	40.637
2.082	40.595
2.06	40.471
2.028	39.285
1.996	36.642
1.964	33.749
1.932	31.841
1.9	29.779
1.868	37.432
1.836	40.194
1.804	41.121
1.772	40.786
1.74	40.413
1.708	40.707
1.676	40.663
1.644	39.96
1.612	40.105
1.58	39.597
1.548	39.181
1.516	38.494
1.484	37.782
1.452	36.398
1.42	34.892
1.388	35.592
1.356	37.736
1.324	37.234
1.292	37.143
1.26	36.205
1.228	35.555
1.196	35.053
1.164	34.032
1.132	33.869
1.1	31.425
1.068	31.503
1.036	30.578
1.004	29.09
0.972	28.322
0.94	27.268
0.908	26.21
0.876	25.482
0.844	24.548
0.812	24.187
0.795	23.872
0.787	22.773
0.779	22.768
0.771	22.174
0.763	22.545
0.755	21.742
0.747	21.343
0.739	20.61
0.731	20.446
0.723	19.842
0.715	19.886
0.707	19.182
0.699	19.835
0.691	18.358
0.683	17.844
0.675	17.366
0.667	17.201
0.659	16.286
0.651	16.203
0.643	15.55
0.635	15.468
0.627	14.35
0.619	14.28
0.611	14.166
0.603	13.695
0.595	13.117
0.587	12.944
0.579	11.983
0.571	11.508
0.563	10.464
0.555	9.337
0.547	8.622
0.539	7.593
0.531	6.422
0.523	5.242
0.515	4.307
0.507	3.0808
0.499	2.6596
0.491	1.2938
0.483	0.6183
0.475	0
0.467	0
0.459	0
0.451	0
0.443	0
0.435	0
0.427	0
0.419	0
0.411	0
0.403	0
