Name: Granodiorite
Type: Rocks
Class: Igneous
Subclass: Intermediate
Particle Size: Solid
Sample No.: Granodior.H2
Owner: JHU
Wavelength Range: All
Origin: Santa Rita Mountains, Arizona, via Smithsonian (Cat. No: NMNH
Description: A dark gray medium-grained rock consisting of light
Measurement: Directional (10 degree) hemispherical reflectance
X Units: Wavelength (micrometers)
Y Units: Reflectance (percent)
wavelength	value
14.0112	4.9068
13.7147	4.0894
13.4304	3.3244
13.1577	4.6259
12.8959	4.3071
12.6443	3.9257
12.4023	3.8943
12.1694	4.1702
11.945	4.7008
11.7289	5.3749
11.5203	5.9172
11.3191	6.6909
11.1248	7.4052
10.937	8.3613
10.7555	9.1387
10.5799	10.9078
10.4099	12.6447
10.2454	14.4693
10.0859	16.6591
9.9313	17.7965
9.7814	17.7159
9.636	18.8074
9.4948	17.5061
9.3577	16.1916
9.2245	15.326
9.095	13.9952
8.9691	13.3127
8.8467	13.4257
8.7275	12.9805
8.6116	11.434
8.4986	11.8469
8.3886	10.8839
8.2814	8.4659
8.1769	5.988
8.075	3.8142
7.9756	2.7639
7.8786	2.2413
7.784	2.0787
7.6916	2.0852
7.6014	2.0264
7.5133	2.0449
7.4272	2.0892
7.343	2.0939
7.2607	2.119
7.1803	2.1727
7.1016	2.3062
7.0246	2.351
6.9493	2.3789
6.8755	2.4073
6.8034	2.3737
6.7327	2.4623
6.6634	2.4958
6.5956	2.5303
6.5292	2.5374
6.464	2.5174
6.4002	2.44
6.3376	2.3582
6.2762	2.3011
6.216	2.3133
6.157	2.3278
6.099	2.3717
6.0421	2.4164
5.9863	2.4021
5.9315	2.3613
5.8777	2.4119
5.8249	2.4452
5.773	2.4567
5.722	2.521
5.6719	2.5104
5.6227	2.4935
5.5744	2.5252
5.5268	2.5551
5.4801	2.6078
5.4341	2.64
5.3889	2.6414
5.3445	2.6405
5.3008	2.6937
5.2578	2.708
5.2154	2.7567
5.1738	2.826
5.1328	2.8303
5.0925	2.8647
5.0528	2.8966
5.0137	2.9184
4.9752	2.9049
4.9373	3.0021
4.9	3.0275
4.8632	3.0537
4.827	3.1083
4.7913	3.134
4.7561	3.1727
4.7215	3.2271
4.6873	3.2533
4.6536	3.3036
4.6205	3.3548
4.5877	3.4078
4.5555	3.4976
4.5237	3.5522
4.4923	3.6251
4.4614	3.6898
4.4309	3.7997
4.4008	3.8798
4.3711	3.9089
4.3418	4.0332
4.3129	4.113
4.2844	4.167
4.2563	4.2597
4.2285	4.3127
4.2011	4.3294
4.174	4.4147
4.1473	4.4192
4.1209	4.4901
4.0949	4.5117
4.0692	4.5176
4.0438	4.541
4.0187	4.4972
3.994	4.4095
3.9695	4.398
3.9453	4.5106
3.9214	4.5875
3.8979	4.6179
3.8746	4.6953
3.8515	4.6912
3.8288	4.7431
3.8063	4.7655
3.7841	4.8035
3.7621	4.8035
3.7404	4.7939
3.7189	4.7695
3.6977	4.7604
3.6767	4.7442
3.656	4.74
3.6355	4.7278
3.6152	4.6953
3.5951	4.6366
3.5753	4.6068
3.5557	4.5825
3.5363	4.5082
3.5171	4.4208
3.4981	4.2841
3.4793	4.2769
3.4607	4.2387
3.4423	4.1852
3.4241	4.0289
3.4061	4.0519
3.3883	4.0418
3.3707	3.9984
3.3533	3.9712
3.336	3.948
3.3189	3.9016
3.302	3.8405
3.2853	3.8245
3.2687	3.7818
3.2523	3.7139
3.2361	3.6647
3.22	3.6098
3.204	3.574
3.1883	3.5124
3.1727	3.5025
3.1572	3.4116
3.1419	3.4223
3.1268	3.39
3.1117	3.3368
3.0969	3.348
3.0821	3.2974
3.0675	3.3581
3.0531	3.2941
3.0388	3.2841
3.0246	3.2426
3.0105	3.2503
2.9966	3.2117
2.9828	3.1839
2.9692	3.1629
2.9556	3.1478
2.9422	3.1462
2.9289	3.1938
2.9157	3.1355
2.9027	3.1413
2.8897	3.1704
2.8769	3.1859
2.8642	3.2076
2.8516	3.1999
2.8391	3.2322
2.8267	3.2117
2.8144	3.2714
2.8022	3.2412
2.7902	3.2754
2.7782	3.2096
2.7664	3.2288
2.7546	3.2789
2.7429	3.2618
2.7314	3.3312
2.7199	3.5156
2.7085	4.0374
2.6973	4.5342
2.6861	4.8488
2.675	4.998
2.664	5.2024
2.6531	5.2657
2.6423	5.3587
2.6315	5.3147
2.6209	5.3939
2.6103	5.3969
2.5999	5.474
2.5895	5.4815
2.5792	5.4891
2.569	5.5233
2.5588	5.5068
2.5487	5.5574
2.5388	5.5436
2.5289	5.4623
2.519	5.5451
2.5093	5.5764
2.4996	5.516
2.49	5.6374
2.4805	5.5701
2.471	5.5068
2.4616	5.5265
2.4523	5.5158
2.4431	5.5969
2.4339	5.5237
2.4248	5.6484
2.4157	5.7169
2.4068	5.7075
2.3979	5.7208
2.389	5.7023
2.3802	5.8218
2.3715	5.7712
2.3629	5.6657
2.3543	5.5617
2.3458	5.5366
2.3373	5.5571
2.3289	5.6334
2.3206	5.8153
2.3123	5.98
2.3041	6.1348
2.2959	6.1847
2.2878	6.2418
2.2798	6.2317
2.2718	6.2993
2.2638	6.3241
2.2559	6.2343
2.2481	6.2133
2.2403	6.2402
2.2326	6.2517
2.225	6.2213
2.2173	6.0475
2.2098	6
2.2023	5.9599
2.1948	6.0286
2.1874	6.2456
2.18	6.4973
2.1727	6.5644
2.1655	6.6961
2.1583	6.7519
2.1511	6.7631
2.144	6.8243
2.1369	6.8672
2.1299	6.9527
2.1229	6.9187
2.116	6.9077
2.1091	6.9377
2.1023	6.9372
2.0955	7.0959
2.0887	7.1402
2.082	7.1623
2.06	7.0457
2.028	7.1408
1.996	7.2753
1.964	7.1197
1.932	6.8918
1.9	7.1668
1.868	7.6016
1.836	7.6752
1.804	7.7443
1.772	7.8535
1.74	8.0048
1.708	8.1195
1.676	8.1276
1.644	8.1846
1.612	8.4923
1.58	8.2583
1.548	8.45
1.516	8.538
1.484	8.4539
1.452	8.5884
1.42	8.5254
1.388	8.5024
1.356	8.8387
1.324	9.1908
1.292	8.9849
1.26	9.2267
1.228	9.2008
1.196	9.1325
1.164	9.3763
1.132	9.6311
1.1	9.5148
1.068	9.7845
1.036	9.8514
1.004	10.1974
0.972	10.2814
0.94	10.4282
0.908	10.6254
0.876	10.7289
0.844	10.9934
0.812	11.3657
0.795	11.206
0.787	11.1876
0.779	11.3888
0.771	11.2795
0.763	11.2438
0.755	11.2036
0.747	11.276
0.739	11.3429
0.731	11.2314
0.723	11.1783
0.715	11.1063
0.707	11.1173
0.699	11.279
0.691	11.2256
0.683	11.1807
0.675	11.1383
0.667	11.186
0.659	11.2317
0.651	11.338
0.643	11.3811
0.635	10.9293
0.627	11.1271
0.619	11.3022
0.611	11.4234
0.603	11.271
0.595	11.394
0.587	11.2053
0.579	11.3005
0.571	11.261
0.563	11.0109
0.555	10.6446
0.547	10.6386
0.539	10.7975
0.531	10.5801
0.523	10.4067
0.515	10.2986
0.507	10.2421
0.499	10.16
0.491	10.1373
0.483	9.9188
0.475	9.5075
0.467	9.6171
0.459	9.0579
0.451	9.1887
0.443	9.2579
0.435	8.7598
0.427	8.3522
0.419	7.9549
0.411	7.6094
0.403	7.1806
