Name: Dolomite CaMg(CO3)2
Type: Mineral
Class: Carbonates
Particle Size: Fine  (Less than 2  Micrometers)
Sample No.: dolomite.1
Owner: JHU
Wavelength Range: IR
Origin: Sample from Oberdorf, Styria, Austria via the Smithsonian
Description: The sample was a single white crystal, 3 cm x 2 cm x 2
Measurement: Transmission
X Units: Wavelength (micrometers)
Y Units: Transmittance (percent)
wavelength	value
25.0442	30.453
24.3388	35.0038
23.6719	47.5038
23.0407	61.9842
22.4422	70.8143
21.8741	76.7303
21.334	79.9021
20.8199	82.7264
20.33	84.1443
19.8627	84.7078
19.4163	85.7302
18.9896	86.5974
18.5812	87.2009
18.19	87.7693
17.815	88.406
17.4551	88.6716
17.1094	89.2283
16.7772	89.4851
16.4576	89.822
16.15	90.2986
15.8537	90.7009
15.568	91.0994
15.2925	91.2166
15.0265	91.5183
14.7697	91.9724
14.5214	91.9548
14.2814	91.99
14.0492	91.1643
13.8244	84.1175
13.6067	82.2908
13.3957	93.2717
13.1912	94.5413
12.9929	94.9373
12.8004	94.8259
12.6135	95.0291
12.432	95.1741
12.2557	95.0784
12.0843	94.676
11.9176	93.7937
11.7555	89.7615
11.5977	87.3728
11.444	64.9007
11.2944	26.9296
11.1487	87.4705
11.0067	92.3084
10.8682	93.092
10.7332	93.1541
10.6015	93.1375
10.473	93.0222
10.3476	92.7151
10.2251	92.0491
10.1056	91.282
9.98873	90.5808
9.87458	89.5901
9.763	88.5003
9.65392	88.4412
9.54724	87.9871
9.44291	88.0823
9.34082	87.6004
9.24091	87.135
9.14312	86.9383
9.04739	87.6258
8.95363	88.6716
8.8618	88.5921
8.77183	88.6082
8.68368	88.5901
8.59727	88.4529
8.51257	88.3933
8.42951	88.2664
8.34807	88.3748
8.26819	88.3797
8.18981	87.7649
8.11292	86.8789
8.03745	86.2168
7.96337	85.4685
7.89064	84.4746
7.81924	83.1277
7.74911	81.2998
7.68023	79.326
7.61256	77.1807
7.54608	74.179
7.48074	70.2596
7.41653	65.7489
7.35341	59.287
7.29136	51.0233
7.23034	42.4491
7.17033	31.5978
7.11132	18.4885
7.05327	9.872
6.99616	2.7053
6.93996	0.8264
6.88467	0.676
6.83024	1.0303
6.77667	1.719
6.72393	2.9668
6.67201	5.602
6.62089	11.9113
6.57054	21.9719
6.52095	33.1847
6.4721	44.1613
6.42398	54.0521
6.37657	62.5401
6.32986	68.8731
6.28382	72.0682
6.23845	73.7413
6.19373	74.9969
6.14965	77.0323
6.10619	78.9395
6.06334	81.1338
6.02109	83.1853
5.97942	85.3477
5.93832	87.294
5.89778	88.7957
5.8578	90.0029
5.81835	90.9053
5.77943	91.6604
5.74103	92.2771
5.70314	92.9646
5.66574	93.407
5.62883	93.4902
5.5924	93.3611
5.55644	92.5664
5.52093	90.1406
5.48588	89.7302
5.45127	93.4138
5.41709	95.2488
5.38334	95.9043
5.35	96.291
5.31708	96.6299
5.28456	96.8816
5.25243	97.0771
5.2207	97.1943
5.18934	97.3916
5.15836	97.5762
5.12775	97.657
5.09749	97.7353
5.0676	97.7312
5.03805	97.8191
5.00884	97.9639
4.97998	98.0427
4.95144	98.1384
4.92322	98.1907
4.89533	98.2009
4.86775	98.2239
4.84048	98.3259
4.81351	98.3699
4.78684	98.4436
4.76047	98.4519
4.73439	98.5056
4.70859	98.5232
4.68306	98.5173
4.65782	98.4773
4.63284	98.4944
4.60814	98.5852
4.58369	98.6287
4.5595	98.741
4.53557	98.7458
4.51188	98.7903
4.48845	98.8884
4.46525	98.9324
4.44229	98.8889
4.41957	98.9167
4.39708	98.9314
4.37481	98.9758
4.35277	99.0203
4.33096	98.9744
4.30935	99.0315
4.28797	99.0134
4.26679	98.9246
4.24583	99.1311
4.22506	99.1599
4.2045	99.0618
4.18414	99.0662
4.16398	99.0554
4.14401	98.9914
4.12423	98.9519
4.10464	98.9294
4.08523	98.8513
4.066	98.7385
4.04696	98.5901
4.02809	98.3577
4.0094	97.6736
3.99088	96.8264
3.97253	94.0432
3.95435	92.7322
3.93634	93.1702
3.91848	93.946
3.90079	95.4783
3.88326	96.1331
3.86589	96.4802
3.84867	97.446
3.8316	97.6389
3.81468	97.0144
3.79791	96.8074
3.78129	97.2976
3.76482	98.0896
3.74848	98.4573
3.73229	98.6091
3.71624	98.572
3.70032	98.5593
3.68454	98.6052
3.6689	98.5466
3.65338	98.5544
3.638	98.489
3.62275	98.4372
3.60762	98.3982
3.59262	98.2693
3.57775	98.2151
3.56299	98.1794
3.54836	97.8572
3.53385	97.7737
3.51945	97.4382
3.50517	96.7854
3.49101	96.0261
3.47696	95.1218
3.46303	94.4182
3.4492	94.0427
3.43549	94.4768
3.42188	94.7791
3.40838	95.0217
3.39499	95.3474
3.38171	95.4924
3.36852	95.7966
3.35544	95.4832
3.34246	95.2117
3.32958	95.1082
3.3168	94.8513
3.30411	94.6912
3.29153	95.8162
3.27903	95.9631
3.26664	95.8772
3.25433	95.74
3.24212	95.5759
3.23	95.3103
3.21797	95.0388
3.20603	94.863
3.19418	94.5369
3.18241	94.3669
3.17074	94.0418
3.15914	93.7087
3.14763	93.2839
3.13621	92.8406
3.12487	92.4548
3.11361	92.0994
3.10243	91.7644
3.09133	91.2244
3.0803	90.7449
3.06936	90.3445
3.0585	89.9959
3.04771	89.824
3.037	89.449
3.02636	88.9822
3.0158	88.3601
3.00531	87.6463
2.99489	86.7947
2.98454	86.0681
2.97427	84.9461
2.96407	83.9803
2.95393	82.9265
2.94387	82.2166
2.93387	81.5994
2.92394	81.1453
2.91408	81.0164
2.90429	81.2615
2.89456	81.7381
2.88489	82.3084
2.87529	82.9334
2.86576	83.4969
2.85628	84.242
2.84687	85.0291
2.83752	85.9568
2.82823	86.6775
2.81901	87.9881
2.80984	88.9939
2.80073	89.8591
2.79168	90.8435
2.78269	92.0466
2.77376	93.1873
2.76488	94.0291
2.75606	94.9656
2.7473	95.7576
2.73859	96.2624
2.72994	96.5388
2.72134	96.4509
2.7128	96.7429
2.70431	96.8923
2.69587	97.1306
2.68748	97.2576
2.67915	97.3279
2.67087	97.2117
2.66264	97.1648
2.65446	97.1414
2.64633	97.1638
2.63825	97.0749
2.63021	97.2146
2.62223	96.9695
2.6143	97.0242
2.60641	96.8679
2.59857	97.071
2.59078	97.1404
2.58304	97.0896
2.57534	97.0037
2.56768	96.8874
2.56008	96.8181
2.55251	96.7361
2.54499	96.8064
2.53752	96.9333
2.53009	96.7322
2.5227	96.6208
2.51536	96.5759
2.50806	96.5857
2.5008	96.6052
2.49358	96.5251
2.4864	96.6521
2.47927	96.5798
2.47218	96.5017
2.46512	96.3611
2.45811	96.5232
2.45114	96.6189
2.4442	96.4314
2.43731	96.533
2.43045	96.7498
2.42363	96.5154
2.41685	96.6091
2.41011	96.5271
2.40341	96.4099
2.39674	96.5232
2.39011	96.4373
2.38352	96.2927
2.37696	96.5466
2.37044	96.2732
2.36395	96.3982
2.35751	96.3865
2.35109	96.4216
2.34471	96.4373
2.33836	96.0896
2.33205	96.1345
2.32578	95.9783
2.31953	96.2341
2.31332	96.1482
2.30714	96.2888
2.301	96.0564
2.29489	96.3005
2.28881	96.2361
2.28276	96.031
2.27675	96.0935
2.27076	96.1736
2.26481	96.1345
2.25889	96.3279
2.253	96.2693
2.24714	96.3279
2.24131	96.0232
2.23551	96.2341
2.22974	96.3142
2.224	95.7732
2.21829	95.9685
2.21261	96.0798
2.20696	95.697
2.20134	95.7048
2.19574	95.7595
2.19018	96.2908
2.18464	95.4939
2.17913	95.6658
2.17365	95.7732
2.16819	96.0271
2.16277	95.738
2.15737	95.8787
2.15199	95.6599
2.14665	95.5193
2.14133	95.3552
2.13603	95.7107
2.13077	95.6794
2.12552	95.5662
2.12031	95.4568
2.11512	95.7302
2.10995	95.3552
2.10481	95.2927
2.0997	95.3435
2.09461	95.531
2.08954	95.6755
2.0845	95.3865
2.07948	95.238
