Name: Montmorillonite (Na,Ca)0.33(Al,Mg)2Si4O10(OH)2.nH2O
Type: Mineral
Class: Silicates
Subclass: Phyllosilicates (Sheet Silicates); (SmectiteGroup)
Particle Size: Fine  (Less than 2  Micrometers); Packed
Sample No.: montmor.2
Owner: JHU
Wavelength Range: IR
Origin: Gonzales Co., Texas via the Hunt and Salisbury Collection
Description: The sample was a white, earthy clay. The bulk sample
Measurement: Transmission
X Units: Wavelength (micrometers)
Y Units: Transmittance (percent)
wavelength	value
25.0442	53.91
24.3388	47.5702
23.6719	40.162
23.0407	37.4892
22.4422	34.3642
21.8741	30.4921
21.334	27.8095
20.8199	35.9657
20.33	44.747
19.8627	43.6015
19.4163	36.9184
18.9896	38.1371
18.5812	43.3988
18.19	47.3246
17.815	49.8905
17.4551	51.9437
17.1094	54.4999
16.7772	58.1825
16.4576	61.1307
16.15	62.1995
15.8537	65.1746
15.568	70.4007
15.2925	73.8641
15.0265	76.2767
14.7697	78.3382
14.5214	79.8987
14.2814	81.5906
14.0492	83.784
13.8244	86.0723
13.6067	87.6697
13.3957	89.1572
13.1912	89.3298
12.9929	87.9082
12.8004	85.7718
12.6135	84.0323
12.432	83.25
12.2557	80.7762
12.0843	75.702
11.9176	72.2354
11.7555	73.1131
11.5977	73.9402
11.444	71.8553
11.2944	68.5662
11.1487	64.0626
11.0067	57.7843
10.8682	56.6561
10.7332	57.4305
10.6015	54.7267
10.473	48.4105
10.3476	41.2318
10.2251	34.3817
10.1056	28.8061
9.98873	24.7328
9.87458	22.0441
9.763	20.7795
9.65392	21.2004
9.54724	23.3742
9.44291	26.7219
9.34082	30.2033
9.24091	32.9291
9.14312	35.682
9.04739	37.9862
8.95363	40.3732
8.8618	43.7733
8.77183	47.1107
8.68368	50.0343
8.59727	52.8072
8.51257	55.2355
8.42951	57.9908
8.34807	61.0287
8.26819	63.7943
8.18981	66.0076
8.11292	67.9608
8.03745	69.5591
7.96337	71.1888
7.89064	72.5745
7.81924	73.6898
7.74911	74.7552
7.68023	75.7659
7.61256	76.6937
7.54608	77.6644
7.48074	78.4358
7.41653	79.2151
7.35341	79.9412
7.29136	80.553
7.23034	81.1092
7.17033	82.0879
7.11132	82.6795
7.05327	82.9197
6.99616	83.3577
6.93996	84.1155
6.88467	84.6062
6.83024	84.7815
6.77667	85.1277
6.72393	85.6399
6.67201	86.1243
6.62089	86.5379
6.57054	86.9094
6.52095	87.2249
6.4721	87.5857
6.42398	87.9844
6.37657	88.3367
6.32986	88.5657
6.28382	88.595
6.23845	88.0867
6.19373	85.9065
6.14965	82.7576
6.10619	81.9527
6.06334	83.8528
6.02109	86.2825
5.97942	87.9324
5.93832	88.1043
5.89778	88.3196
5.8578	88.6756
5.81835	89.1218
5.77943	89.5635
5.74103	89.9426
5.70314	90.2073
5.66574	90.4041
5.62883	90.6284
5.5924	90.7234
5.55644	90.7605
5.52093	90.7952
5.48588	90.8811
5.45127	90.9495
5.41709	91.0964
5.38334	91.2522
5.35	91.5169
5.31708	91.7705
5.28456	91.9846
5.25243	92.1643
5.2207	92.3435
5.18934	92.4929
5.15836	92.6375
5.12775	92.8323
5.09749	92.9749
5.0676	93.1118
5.03805	93.335
5.00884	93.4722
4.97998	93.634
4.95144	93.7939
4.92322	93.9468
4.89533	94.0557
4.86775	94.2078
4.84048	94.3059
4.81351	94.46
4.78684	94.5532
4.76047	94.6326
4.73439	94.7114
4.70859	94.8027
4.68306	94.8621
4.65782	94.9922
4.63284	95.0813
4.60814	95.2422
4.58369	95.1814
4.5595	95.2405
4.53557	95.2581
4.51188	95.2981
4.48845	95.3899
4.46525	95.4729
4.44229	95.4595
4.41957	95.5059
4.39708	95.6306
4.37481	95.7366
4.35277	95.7861
4.33096	95.8484
4.30935	95.9031
4.28797	95.9114
4.26679	96.01
4.24583	96.1465
4.22506	96.196
4.2045	96.2197
4.18414	96.3391
4.16398	96.3723
4.14401	96.4434
4.12423	96.5361
4.10464	96.583
4.08523	96.6055
4.066	96.6484
4.04696	96.7014
4.02809	96.7756
4.0094	96.7493
3.99088	96.6873
3.97253	96.6941
3.95435	96.8408
3.93634	96.9534
3.91848	97.0051
3.90079	97.0505
3.88326	97.0481
3.86589	97.0398
3.84867	97.123
3.8316	97.1599
3.81468	97.2051
3.79791	97.259
3.78129	97.2754
3.76482	97.2537
3.74848	97.2351
3.73229	97.2917
3.71624	97.3281
3.70032	97.2541
3.68454	97.279
3.6689	97.2888
3.65338	97.3406
3.638	97.331
3.62275	97.2998
3.60762	97.3516
3.59262	97.3308
3.57775	97.376
3.56299	97.3748
3.54836	97.3098
3.53385	97.2722
3.51945	97.0784
3.50517	96.9326
3.49101	96.8796
3.47696	96.9128
3.46303	96.9724
3.4492	96.9707
3.43549	96.8789
3.42188	96.6433
3.40838	96.364
3.39499	96.5439
3.38171	96.5496
3.36852	96.7434
3.35544	96.7019
3.34246	96.6873
3.32958	96.6892
3.3168	96.585
3.30411	96.5955
3.29153	96.4922
3.27903	96.3437
3.26664	96.2136
3.25433	95.9951
3.24212	95.9441
3.23	95.7063
3.21797	95.5066
3.20603	95.2336
3.19418	94.8064
3.18241	94.4456
3.17074	94.0276
3.15914	93.4915
3.14763	92.8943
3.13621	92.176
3.12487	91.5061
3.11361	90.8552
3.10243	90.0916
3.09133	89.6174
3.0803	89.2517
3.06936	88.9265
3.0585	88.5105
3.04771	87.8592
3.037	87.1331
3.02636	86.2893
3.0158	85.3572
3.00531	84.4143
2.99489	83.5135
2.98454	82.8382
2.97427	82.055
2.96407	81.5403
2.95393	81.1292
2.94387	81.0857
2.93387	81.0574
2.92394	81.0652
2.91408	81.201
2.90429	81.4412
2.89456	81.6844
2.88489	81.8709
2.87529	81.8836
2.86576	81.9598
2.85628	82.2034
2.84687	82.4646
2.83752	82.6404
2.82823	82.7957
2.81901	82.8396
2.80984	82.4436
2.80073	81.6795
2.79168	79.8128
2.78269	77.5311
2.77376	75.0887
2.76488	73.4217
2.75606	73.3069
2.7473	75.9471
2.73859	79.1687
2.72994	81.7386
2.72134	84.3328
2.7128	87.0003
2.70431	89.6448
2.69587	91.7927
2.68748	93.2639
2.67915	93.8987
2.67087	94.4084
2.66264	94.7463
2.65446	94.7913
2.64633	94.9734
2.63825	95.1018
2.63021	95.2673
2.62223	95.4202
2.6143	95.4949
2.60641	95.5613
2.59857	95.8093
2.59078	95.7576
2.58304	95.99
2.57534	96.0632
2.56768	96.0564
2.56008	96.24
2.55251	96.072
2.54499	96.0447
2.53752	96.2478
2.53009	96.2507
2.5227	96.0789
2.51536	96.2361
2.50806	96.4939
2.5008	96.4665
2.49358	96.3982
2.4864	96.4802
2.47927	96.4665
2.47218	96.6052
2.46512	96.6189
2.45811	96.5095
2.45114	96.5486
2.4442	96.5164
2.43731	96.5007
2.43045	96.6814
2.42363	96.696
2.41685	96.7165
2.41011	96.9294
2.40341	96.8943
2.39674	96.656
2.39011	96.7986
2.38352	96.7263
2.37696	96.9421
2.37044	97.0193
2.36395	97.1208
2.35751	96.9148
2.35109	96.9851
2.34471	97.3044
2.33836	97.0955
2.33205	97.0388
2.32578	97.0037
2.31953	97.113
2.31332	97.3914
2.30714	97.1648
2.301	97.154
2.29489	97.364
2.28881	97.4646
2.28276	97.3601
2.27675	97.4109
2.27076	97.4617
2.26481	97.4656
2.25889	97.5466
2.253	97.6443
2.24714	97.6062
2.24131	97.3982
2.23551	97.613
2.22974	97.7107
2.224	97.4783
2.21829	97.7107
2.21261	97.908
2.20696	97.5095
2.20134	97.6697
2.19574	97.6189
2.19018	97.9255
2.18464	97.9587
2.17913	97.8747
2.17365	97.8611
2.16819	98.1912
2.16277	98.3533
2.15737	98.0622
2.15199	98.1267
2.14665	98.1013
2.14133	98.0408
2.13603	98.0974
2.13077	98.4763
2.12552	98.4177
2.12031	98.1482
2.11512	98.4919
2.10995	98.6091
2.10481	98.3142
2.0997	98.5642
2.09461	98.5486
2.08954	98.4646
2.0845	98.8201
2.07948	98.697
