Name: Muscovite KAl2(Si3Al)O10(OH,F)2
Type: Mineral
Class: Silicates
Subclass: Phyllosilicates (Sheet Silicates); (MicaGroup)
Particle Size: Fine (0-74  Micrometer)
Sample No.: muscov.2
Owner: JHU
Wavelength Range: IR
Origin: Fremont Co., Colorado via Hunt and Salisbury Collection #146B
Description: The hand sample appeared to be pure, transparent
Measurement: Bidirectional reflectance
X Units: Wavelength (micrometers)
Y Units: Reflectance (percent)
wavelength	value
25.0442	1.3711
24.3388	1.1455
23.6719	1.0676
23.0407	1.1016
22.4422	1.1924
21.8741	1.0801
21.334	1.187
20.8199	1.2385
20.33	1.1631
19.8627	1.03
19.4163	1.0276
18.9896	1.1199
18.5812	1.2122
18.19	1.1545
17.815	1.1382
17.4551	1.0198
17.1094	0.9685
16.7772	0.905
16.4576	0.7776
16.15	0.6816
15.8537	0.6987
15.568	0.7004
15.2925	0.8726
15.0265	0.9502
14.7697	0.9412
14.5214	0.9062
14.2814	0.9917
14.0492	1.125
13.8244	1.136
13.6067	1.074
13.3957	0.8342
13.1912	0.8567
12.9929	1.1936
12.8004	1.3157
12.6135	1.2244
12.432	1.1748
12.2557	1.3428
12.0843	1.3572
11.9176	1.8396
11.7555	1.9397
11.5977	1.6182
11.444	1.3071
11.2944	1.1411
11.1487	1.0781
11.0067	0.969
10.8682	0.8813
10.7332	0.897
10.6015	0.9563
10.473	1.002
10.3476	0.9587
10.2251	0.9155
10.1056	0.9194
9.98873	0.9341
9.87458	0.9529
9.763	1.0454
9.65392	1.2412
9.54724	1.3281
9.44291	1.0408
9.34082	1.0339
9.24091	1.2046
9.14312	1.4084
9.04739	1.4897
8.95363	1.51
8.8618	1.5662
8.77183	1.6787
8.68368	1.7375
8.59727	1.5627
8.51257	1.4426
8.42951	1.2598
8.34807	1.1702
8.26819	1.2793
8.18981	1.5471
8.11292	1.7908
8.03745	2.0613
7.96337	2.3718
7.89064	2.6277
7.81924	2.9062
7.74911	3.2351
7.68023	3.5454
7.61256	3.8122
7.54608	4.0762
7.48074	4.2995
7.41653	4.4651
7.35341	4.6284
7.29136	4.7781
7.23034	5.0188
7.17033	5.27
7.11132	5.5029
7.05327	5.7041
6.99616	5.9236
6.93996	6.1352
6.88467	6.3376
6.83024	6.4658
6.77667	6.6496
6.72393	6.8083
6.67201	6.9704
6.62089	7.1245
6.57054	7.1882
6.52095	7.3706
6.4721	7.5683
6.42398	7.6452
6.37657	7.6526
6.32986	7.5515
6.28382	7.3847
6.23845	7.1848
6.19373	7.0144
6.14965	6.9697
6.10619	6.8513
6.06334	6.728
6.02109	6.644
5.97942	6.5473
5.93832	6.4595
5.89778	6.5495
5.8578	6.717
5.81835	6.7969
5.77943	6.8301
5.74103	6.7976
5.70314	6.7507
5.66574	6.6711
5.62883	6.5398
5.5924	6.48
5.55644	6.4978
5.52093	6.5932
5.48588	6.7248
5.45127	6.8872
5.41709	6.9888
5.38334	6.9365
5.35	6.9455
5.31708	7.2014
5.28456	7.5544
5.25243	8.0349
5.2207	8.5346
5.18934	8.8994
5.15836	9.1782
5.12775	9.4243
5.09749	9.5783
5.0676	9.5786
5.03805	9.6013
5.00884	9.6113
4.97998	9.7053
4.95144	9.8669
4.92322	9.9646
4.89533	10.2058
4.86775	10.3835
4.84048	10.4836
4.81351	10.5759
4.78684	10.6596
4.76047	10.7773
4.73439	10.8899
4.70859	10.9956
4.68306	11.0957
4.65782	11.2651
4.63284	11.445
4.60814	11.614
4.58369	11.7619
4.5595	11.8972
4.53557	11.9756
4.51188	12.0446
4.48845	12.1179
4.46525	12.2253
4.44229	12.3474
4.41957	12.4658
4.39708	12.5691
4.37481	12.6518
4.35277	12.6997
4.33096	12.7292
4.30935	12.74
4.28797	12.7387
4.26679	12.7397
4.24583	12.7675
4.22506	12.7912
4.2045	12.7937
4.18414	12.7981
4.16398	12.7915
4.14401	12.7986
4.12423	12.8217
4.10464	12.834
4.08523	12.8525
4.066	12.8764
4.04696	12.8906
4.02809	12.9038
4.0094	12.914
3.99088	12.9174
3.97253	12.9182
3.95435	12.9409
3.93634	12.9575
3.91848	12.9809
3.90079	12.9782
3.88326	12.9714
3.86589	12.9663
3.84867	12.9536
3.8316	12.9314
3.81468	12.9035
3.79791	12.8706
3.78129	12.8134
3.76482	12.7617
3.74848	12.6755
3.73229	12.6169
3.71624	12.5608
3.70032	12.5195
3.68454	12.4839
3.6689	12.4443
3.65338	12.4214
3.638	12.3916
3.62275	12.373
3.60762	12.3532
3.59262	12.3071
3.57775	12.2365
3.56299	12.1882
3.54836	12.1164
3.53385	12.0351
3.51945	11.9292
3.50517	11.7973
3.49101	11.7419
3.47696	11.6946
3.46303	11.6225
3.4492	11.5254
3.43549	11.4096
3.42188	11.2619
3.40838	11.186
3.39499	11.1753
3.38171	11.1145
3.36852	11.0747
3.35544	11.039
3.34246	10.9731
3.32958	10.9045
3.3168	10.8371
3.30411	10.7614
3.29153	10.6819
3.27903	10.5844
3.26664	10.5051
3.25433	10.4009
3.24212	10.3066
3.23	10.2092
3.21797	10.1162
3.20603	10.0244
3.19418	9.9294
3.18241	9.8486
3.17074	9.7583
3.15914	9.6731
3.14763	9.5761
3.13621	9.476
3.12487	9.3901
3.11361	9.3147
3.10243	9.2363
3.09133	9.1592
3.0803	9.083
3.06936	9.0068
3.0585	8.9541
3.04771	8.8977
3.037	8.8559
3.02636	8.7976
3.0158	8.7422
3.00531	8.6811
2.99489	8.623
2.98454	8.5581
2.97427	8.4802
2.96407	8.3957
2.95393	8.3271
2.94387	8.2446
2.93387	8.1565
2.92394	8.0923
2.91408	8.0303
2.90429	8.0185
2.89456	8.0222
2.88489	7.9985
2.87529	8.0012
2.86576	8.0278
2.85628	8.0046
2.84687	7.9248
2.83752	7.6511
2.82823	7.1062
2.81901	6.0952
2.80984	4.7056
2.80073	3.4001
2.79168	2.311
2.78269	1.6387
2.77376	1.3018
2.76488	1.1033
2.75606	1.0898
2.7473	1.3608
2.73859	1.8855
2.72994	3.1394
2.72134	5.8972
2.7128	8.9367
2.70431	10.6079
2.69587	11.3452
2.68748	11.8005
2.67915	12.1526
2.67087	12.5603
2.66264	12.9096
2.65446	13.0876
2.64633	13.1552
2.63825	13.1736
2.63021	13.1284
2.62223	13.2236
2.6143	13.2378
2.60641	13.2656
2.59857	13.3711
2.59078	13.4565
2.58304	13.5058
2.57534	13.6027
2.56768	13.6499
2.56008	13.6997
2.55251	13.7495
2.54499	13.7898
2.53752	13.7722
2.53009	13.6902
2.5227	13.6113
2.51536	13.5571
2.50806	13.4887
2.5008	13.4045
2.49358	13.3881
2.4864	13.3203
2.47927	13.249
2.47218	13.1811
2.46512	13.0771
2.45811	12.989
2.45114	12.9336
2.4442	12.9194
2.43731	12.9692
2.43045	13.103
2.42363	13.209
2.41685	13.3259
2.41011	13.424
2.40341	13.4726
2.39674	13.4433
2.39011	13.3838
2.38352	13.3379
2.37696	13.3015
2.37044	13.3383
2.36395	13.3105
2.35751	13.2739
2.35109	13.2544
2.34471	13.3354
2.33836	13.561
2.33205	13.7754
2.32578	14.0405
2.31953	14.2661
2.31332	14.4907
2.30714	14.655
2.301	14.7883
2.29489	14.8715
2.28881	14.916
2.28276	14.9231
2.27675	14.8867
2.27076	14.8471
2.26481	14.79
2.25889	14.6279
2.253	14.3881
2.24714	14.1496
2.24131	13.9541
2.23551	13.9204
2.22974	13.7529
2.224	13.352
2.21829	13.019
2.21261	12.7387
2.20696	12.705
2.20134	12.9082
2.19574	13.3078
2.19018	13.799
2.18464	14.2714
2.17913	14.6218
2.17365	14.8921
2.16819	15.0717
2.16277	15.2204
2.15737	15.2719
2.15199	15.2929
2.14665	15.2861
2.14133	15.3762
2.13603	15.4038
2.13077	15.3847
2.12552	15.3957
2.12031	15.4321
2.11512	15.466
2.10995	15.4528
2.10481	15.5014
2.0997	15.5805
2.09461	15.6201
2.08954	15.6723
2.0845	15.6818
2.07948	15.666
