Name: Microcline KAlSi3O8
Type: Mineral
Class: Silicates
Subclass: Tectosilicates (Framework Silicates); (Feldspar Group)
Particle Size: Fine  (0-74  Micrometers)
Sample No.: micro.1
Owner: JHU
Wavelength Range: IR
Origin: Park County, Colorado via the Smithsonian (sample no. NMNH
Description: Sample was a 19.5 g fragment, light green in color. A
Measurement: Bidirectional reflectance
X Units: Wavelength (micrometers)
Y Units: Reflectance (percent)
wavelength	value
25.0442	2.8027
24.3388	2.6162
23.6719	3.1343
23.0407	3.0129
22.4422	3.0225
21.8741	2.5859
21.334	2.1125
20.8199	2.3894
20.33	3.3479
19.8627	3.8535
19.4163	3.5327
18.9896	2.6587
18.5812	2.1699
18.19	2.1753
17.815	2.3179
17.4551	2.333
17.1094	2.4441
16.7772	2.6291
16.4576	2.2461
16.15	2.4292
15.8537	2.5745
15.568	1.9123
15.2925	2.0522
15.0265	2.9707
14.7697	3.814
14.5214	3.9587
14.2814	3.446
14.0492	2.4783
13.8244	1.7705
13.6067	1.6545
13.3957	1.9036
13.1912	1.9214
12.9929	1.6775
12.8004	1.3025
12.6135	2.1985
12.432	3.9602
12.2557	4.9368
12.0843	5.542
11.9176	5.5754
11.7555	5.4358
11.5977	5.3037
11.444	5.1042
11.2944	4.9079
11.1487	4.5889
11.0067	4.2192
10.8682	3.8787
10.7332	3.5537
10.6015	3.0627
10.473	2.5872
10.3476	2.2656
10.2251	2.1501
10.1056	2.231
9.98873	2.4348
9.87458	2.5784
9.763	2.5237
9.65392	2.4438
9.54724	2.5413
9.44291	2.6108
9.34082	2.4914
9.24091	2.5901
9.14312	2.5395
9.04739	2.1389
8.95363	2.073
8.8618	2.2612
8.77183	2.6172
8.68368	2.927
8.59727	3.1877
8.51257	3.4585
8.42951	3.7368
8.34807	3.9651
8.26819	3.8096
8.18981	3.3594
8.11292	2.8408
8.03745	2.2349
7.96337	1.5725
7.89064	1.0435
7.81924	0.8379
7.74911	0.9629
7.68023	1.313
7.61256	1.7544
7.54608	2.2512
7.48074	2.6963
7.41653	3.1094
7.35341	3.488
7.29136	3.9224
7.23034	4.3498
7.17033	4.7961
7.11132	5.2915
7.05327	5.654
6.99616	5.8169
6.93996	5.9612
6.88467	6.1477
6.83024	6.1897
6.77667	6.1733
6.72393	6.4492
6.67201	6.716
6.62089	6.8183
6.57054	6.9372
6.52095	6.9687
6.4721	6.9394
6.42398	6.8257
6.37657	6.7124
6.32986	6.5505
6.28382	6.4524
6.23845	6.3806
6.19373	6.3691
6.14965	6.571
6.10619	6.833
6.06334	7.0888
6.02109	7.2383
5.97942	7.2971
5.93832	7.1892
5.89778	7.1235
5.8578	7.1306
5.81835	6.9917
5.77943	6.831
5.74103	6.7488
5.70314	6.6479
5.66574	6.3723
5.62883	6.4033
5.5924	6.8501
5.55644	6.9226
5.52093	7.5561
5.48588	8.0766
5.45127	8.157
5.41709	8.3801
5.38334	8.6523
5.35	8.8447
5.31708	9.1369
5.28456	9.3523
5.25243	9.489
5.2207	9.7805
5.18934	10.4306
5.15836	11.0268
5.12775	11.6489
5.09749	12.3469
5.0676	12.7544
5.03805	12.8017
5.00884	13.2287
4.97998	13.4226
4.95144	13.2436
4.92322	13.0456
4.89533	13.2121
4.86775	13.5481
4.84048	13.5952
4.81351	13.4482
4.78684	13.257
4.76047	13.313
4.73439	13.5124
4.70859	13.3391
4.68306	13.2397
4.65782	13.3112
4.63284	13.5324
4.60814	13.8496
4.58369	14.092
4.5595	14.4668
4.53557	14.8994
4.51188	15.25
4.48845	15.5732
4.46525	15.9441
4.44229	16.2414
4.41957	16.4516
4.39708	16.6828
4.37481	16.9338
4.35277	17.1623
4.33096	17.4128
4.30935	17.6433
4.28797	17.8437
4.26679	17.9292
4.24583	18.1835
4.22506	18.302
4.2045	18.4245
4.18414	18.4975
4.16398	18.55
4.14401	18.5632
4.12423	18.5842
4.10464	18.6179
4.08523	18.6533
4.066	18.6652
4.04696	18.6779
4.02809	18.6782
4.0094	18.6782
3.99088	18.6704
3.97253	18.6811
3.95435	18.7111
3.93634	18.7392
3.91848	18.767
3.90079	18.7856
3.88326	18.7917
3.86589	18.8117
3.84867	18.8415
3.8316	18.8793
3.81468	18.892
3.79791	18.9113
3.78129	18.923
3.76482	18.9301
3.74848	18.9255
3.73229	18.9265
3.71624	18.9067
3.70032	18.8867
3.68454	18.8728
3.6689	18.8439
3.65338	18.8476
3.638	18.8371
3.62275	18.801
3.60762	18.7832
3.59262	18.7334
3.57775	18.6965
3.56299	18.6352
3.54836	18.5754
3.53385	18.4804
3.51945	18.3266
3.50517	18.0051
3.49101	17.9733
3.47696	17.9282
3.46303	17.9321
3.4492	17.8432
3.43549	17.7143
3.42188	17.4668
3.40838	17.4502
3.39499	17.6032
3.38171	17.592
3.36852	17.6562
3.35544	17.6103
3.34246	17.7448
3.32958	17.7854
3.3168	17.727
3.30411	17.6877
3.29153	17.6242
3.27903	17.5434
3.26664	17.4685
3.25433	17.3689
3.24212	17.2944
3.23	17.2099
3.21797	17.1418
3.20603	17.0417
3.19418	16.9585
3.18241	16.8867
3.17074	16.7966
3.15914	16.7089
3.14763	16.612
3.13621	16.5065
3.12487	16.4253
3.11361	16.3491
3.10243	16.2912
3.09133	16.219
3.0803	16.163
3.06936	16.0944
3.0585	16.0488
3.04771	16.0029
3.037	15.9816
3.02636	15.9426
3.0158	15.8994
3.00531	15.8444
2.99489	15.8086
2.98454	15.789
2.97427	15.7658
2.96407	15.7231
2.95393	15.7163
2.94387	15.6879
2.93387	15.7036
2.92394	15.7119
2.91408	15.748
2.90429	15.7793
2.89456	15.8606
2.88489	15.9084
2.87529	15.9692
2.86576	16.008
2.85628	16.1052
2.84687	16.1762
2.83752	16.2421
2.82823	16.2358
2.81901	16.2788
2.80984	16.3955
2.80073	16.4939
2.79168	16.6743
2.78269	16.8671
2.77376	17.0813
2.76488	17.288
2.75606	17.5654
2.7473	17.9277
2.73859	18.309
2.72994	18.6645
2.72134	18.998
2.7128	19.2988
2.70431	19.4887
2.69587	19.6513
2.68748	19.8056
2.67915	19.9072
2.67087	20.0512
2.66264	20.2219
2.65446	20.2448
2.64633	20.2602
2.63825	20.2709
2.63021	20.2675
2.62223	20.3044
2.6143	20.311
2.60641	20.2968
2.59857	20.3247
2.59078	20.3046
2.58304	20.3193
2.57534	20.3574
2.56768	20.3374
2.56008	20.3652
2.55251	20.3325
2.54499	20.33
2.53752	20.3098
2.53009	20.333
2.5227	20.2832
2.51536	20.2822
2.50806	20.2871
2.5008	20.3049
2.49358	20.3085
2.4864	20.2619
2.47927	20.2705
2.47218	20.3144
2.46512	20.1987
2.45811	20.2333
2.45114	20.259
2.4442	20.1801
2.43731	20.2277
2.43045	20.1984
2.42363	20.2031
2.41685	20.2424
2.41011	20.2443
2.40341	20.2167
2.39674	20.204
2.39011	20.1975
2.38352	20.1396
2.37696	20.1574
2.37044	20.1269
2.36395	20.1577
2.35751	20.0966
2.35109	20.1396
2.34471	20.0998
2.33836	20.0595
2.33205	20.05
2.32578	20.0207
2.31953	20.0668
2.31332	20.0209
2.30714	20.0263
2.301	19.9707
2.29489	19.9785
2.28881	19.934
2.28276	19.8647
2.27675	19.9155
2.27076	19.9111
2.26481	19.8945
2.25889	19.8701
2.253	19.8603
2.24714	19.8618
2.24131	19.8398
2.23551	19.8593
2.22974	19.8105
2.224	19.8027
2.21829	19.8813
2.21261	19.8066
2.20696	19.8085
2.20134	19.7812
2.19574	19.8295
2.19018	19.7778
2.18464	19.7836
2.17913	19.7919
2.17365	19.8364
2.16819	19.8154
2.16277	19.8847
2.15737	19.8447
2.15199	19.7539
2.14665	19.7641
2.14133	19.8037
2.13603	19.8027
2.13077	19.7407
2.12552	19.811
2.12031	19.8378
2.11512	19.7426
2.10995	19.8193
2.10481	19.7539
2.0997	19.7094
2.09461	19.8164
2.08954	19.8515
2.0845	19.8242
2.07948	19.7387
