Name: Microcline KAlSi3O8
Type: Mineral
Class: Silicates
Subclass: Tectosilicates (Framework Silicates); (Feldspar Group)
Particle Size: Solid
Sample No.: micro.1
Owner: JHU
Wavelength Range: IR
Origin: Park County, Colorado via the Smithsonian (sample no. NMNH
Description: Sample was a 19.5 g fragment, light green in color. A
Measurement: Bidirectional reflectance
X Units: Wavelength (micrometers)
Y Units: Reflectance (percent)
wavelength	value
25.0442	17.9082
24.3388	21.3007
23.6719	29.8788
23.0407	31.3886
22.4422	32.3422
21.8741	26.2133
21.334	15.8886
20.8199	11.6889
20.33	9.2661
19.8627	10.5588
19.4163	11.5403
18.9896	13.063
18.5812	16.4399
18.19	13.0246
17.815	13.8203
17.4551	15.5539
17.1094	18.9729
16.7772	21.7197
16.4576	21.9511
16.15	15.2805
15.8537	8.9324
15.568	9.8398
15.2925	11.0429
15.0265	7.7785
14.7697	8.5737
14.5214	9.2268
14.2814	9.9499
14.0492	10.594
13.8244	11.2007
13.6067	10.1269
13.3957	9.7451
13.1912	10.5825
12.9929	12.4614
12.8004	9.2939
12.6135	8.5615
12.432	9.0371
12.2557	9.7539
12.0843	10.3154
11.9176	10.6777
11.7555	11.0009
11.5977	11.2309
11.444	11.5073
11.2944	11.7229
11.1487	12.0446
11.0067	12.4592
10.8682	12.8737
10.7332	13.4641
10.6015	14.2165
10.473	15.269
10.3476	16.8498
10.2251	19.2583
10.1056	24.0119
9.98873	29.0556
9.87458	32.5453
9.763	31.8901
9.65392	28.4867
9.54724	28.3747
9.44291	31.2528
9.34082	25.6567
9.24091	26.6015
9.14312	27.725
9.04739	25.8068
8.95363	27.5532
8.8618	31.446
8.77183	32.2841
8.68368	32.8871
8.59727	32.9093
8.51257	33.216
8.42951	33.456
8.34807	31.9496
8.26819	27.7507
8.18981	22.4084
8.11292	17.4843
8.03745	12.2915
7.96337	7.2805
7.89064	3.5195
7.81924	2.0251
7.74911	2.042
7.68023	2.4141
7.61256	2.7864
7.54608	3.1274
7.48074	3.4267
7.41653	3.708
7.35341	3.9485
7.29136	4.165
7.23034	4.3999
7.17033	4.6291
7.11132	4.8618
7.05327	5.04
6.99616	5.1841
6.93996	5.2859
6.88467	5.3835
6.83024	5.4455
6.77667	5.5154
6.72393	5.6433
6.67201	5.7685
6.62089	5.8852
6.57054	5.9702
6.52095	6.042
6.4721	6.072
6.42398	6.0696
6.37657	6.1147
6.32986	6.1123
6.28382	6.1074
6.23845	6.1347
6.19373	6.1885
6.14965	6.269
6.10619	6.3213
6.06334	6.4263
6.02109	6.5058
5.97942	6.5173
5.93832	6.4077
5.89778	6.353
5.8578	6.3525
5.81835	6.2903
5.77943	6.2986
5.74103	6.3308
5.70314	6.3493
5.66574	6.2991
5.62883	6.322
5.5924	6.5044
5.55644	6.5566
5.52093	6.7707
5.48588	7.0725
5.45127	7.1677
5.41709	7.1921
5.38334	7.1907
5.35	7.1772
5.31708	7.2976
5.28456	7.3869
5.25243	7.4375
5.2207	7.5466
5.18934	7.8691
5.15836	8.1921
5.12775	8.5405
5.09749	8.9404
5.0676	9.1394
5.03805	9.1721
5.00884	9.5019
4.97998	9.6169
4.95144	9.4577
4.92322	9.4319
4.89533	9.626
4.86775	9.8159
4.84048	9.8489
4.81351	9.8203
4.78684	9.7907
4.76047	9.7881
4.73439	9.7778
4.70859	9.6274
4.68306	9.5632
4.65782	9.5632
4.63284	9.6377
4.60814	9.761
4.58369	9.8552
4.5595	10.0151
4.53557	10.2346
4.51188	10.4409
4.48845	10.6252
4.46525	10.8091
4.44229	10.948
4.41957	11.0722
4.39708	11.1828
4.37481	11.3069
4.35277	11.4223
4.33096	11.5317
4.30935	11.6064
4.28797	11.6494
4.26679	11.5078
4.24583	11.8398
4.22506	11.9448
4.2045	12.071
4.18414	12.1469
4.16398	12.1821
4.14401	12.219
4.12423	12.229
4.10464	12.2509
4.08523	12.2695
4.066	12.2793
4.04696	12.289
4.02809	12.2968
4.0094	12.3025
3.99088	12.302
3.97253	12.2961
3.95435	12.3061
3.93634	12.3144
3.91848	12.3264
3.90079	12.3454
3.88326	12.3193
3.86589	12.3327
3.84867	12.3586
3.8316	12.3772
3.81468	12.3762
3.79791	12.3852
3.78129	12.3694
3.76482	12.3823
3.74848	12.3818
3.73229	12.3828
3.71624	12.3686
3.70032	12.3486
3.68454	12.3225
3.6689	12.3195
3.65338	12.3225
3.638	12.2966
3.62275	12.2802
3.60762	12.2397
3.59262	12.2192
3.57775	12.1972
3.56299	12.1548
3.54836	12.1162
3.53385	12.0844
3.51945	12.0388
3.50517	11.9697
3.49101	11.9277
3.47696	11.8911
3.46303	11.8579
3.4492	11.7758
3.43549	11.729
3.42188	11.6372
3.40838	11.5757
3.39499	11.5429
3.38171	11.4594
3.36852	11.4082
3.35544	11.3462
3.34246	11.2636
3.32958	11.1914
3.3168	11.1084
3.30411	11.0439
3.29153	10.9707
3.27903	10.8916
3.26664	10.7947
3.25433	10.7192
3.24212	10.6306
3.23	10.5542
3.21797	10.4704
3.20603	10.3869
3.19418	10.3017
3.18241	10.2138
3.17074	10.1487
3.15914	10.0652
3.14763	9.9785
3.13621	9.9157
3.12487	9.8398
3.11361	9.7654
3.10243	9.6933
3.09133	9.6623
3.0803	9.5962
3.06936	9.5595
3.0585	9.5049
3.04771	9.4731
3.037	9.4336
3.02636	9.3996
3.0158	9.3452
3.00531	9.3108
2.99489	9.2551
2.98454	9.2219
2.97427	9.186
2.96407	9.1465
2.95393	9.1113
2.94387	9.0928
2.93387	9.0725
2.92394	9.0654
2.91408	9.0696
2.90429	9.091
2.89456	9.1125
2.88489	9.1184
2.87529	9.136
2.86576	9.1792
2.85628	9.2314
2.84687	9.2553
2.83752	9.2817
2.82823	9.3271
2.81901	9.3645
2.80984	9.4092
2.80073	9.4653
2.79168	9.56
2.78269	9.6545
2.77376	9.7619
2.76488	9.884
2.75606	9.9922
2.7473	10.2317
2.73859	10.3762
2.72994	10.678
2.72134	10.8681
2.7128	11.1196
2.70431	11.2834
2.69587	11.4355
2.68748	11.5224
2.67915	11.5742
2.67087	11.5566
2.66264	11.6758
2.65446	11.6723
2.64633	11.6821
2.63825	11.6611
2.63021	11.6133
2.62223	11.6396
2.6143	11.6508
2.60641	11.5971
2.59857	11.624
2.59078	11.622
2.58304	11.582
2.57534	11.5918
2.56768	11.5595
2.56008	11.5512
2.55251	11.5009
2.54499	11.5009
2.53752	11.4873
2.53009	11.4419
2.5227	11.4306
2.51536	11.4321
2.50806	11.4101
2.5008	11.4267
2.49358	11.3886
2.4864	11.3711
2.47927	11.3535
2.47218	11.3247
2.46512	11.3008
2.45811	11.2939
2.45114	11.2802
2.4442	11.2622
2.43731	11.2519
2.43045	11.2099
2.42363	11.2304
2.41685	11.2519
2.41011	11.2505
2.40341	11.2226
2.39674	11.1894
2.39011	11.1982
2.38352	11.1758
2.37696	11.1509
2.37044	11.1738
2.36395	11.1777
2.35751	11.1509
2.35109	11.1489
2.34471	11.143
2.33836	11.1172
2.33205	11.1015
2.32578	11.0449
2.31953	11.1216
2.31332	11.0957
2.30714	11.0869
2.301	11.0947
2.29489	11.0957
2.28881	11.0996
2.28276	11.039
2.27675	11.0967
2.27076	11.0322
2.26481	11.0722
2.25889	11.0547
2.253	11.081
2.24714	11.0947
2.24131	11.0957
2.23551	11.0791
2.22974	11.0732
2.224	11.04
2.21829	11.0605
2.21261	11.082
2.20696	11.1015
2.20134	11.0478
2.19574	11.0547
2.19018	11.1289
2.18464	11.0254
2.17913	11.0761
2.17365	11.1025
2.16819	11.1259
2.16277	11.1142
2.15737	11.1299
2.15199	11.1142
2.14665	11.083
2.14133	11.1425
2.13603	11.1425
2.13077	11.1836
2.12552	11.1259
2.12031	11.1699
2.11512	11.1484
2.10995	11.1074
2.10481	11.1689
2.0997	11.1992
2.09461	11.1914
2.08954	11.2168
2.0845	11.1914
2.07948	11.208
