Name: Dunite
Type: Rocks
Class: Igneous
Subclass: Ultramafic
Particle Size: Solid
Sample No.: Dunite.H1
Owner: JHU
Origin: from near Balsam, Jackson County, North Carolina, via Ward's
Description: A green, medium- to fine-grained granular rock composed
Measurement: Directional (10 degree) hemispherical reflectance
X Units: Wavelength (micrometers)
Y Units: Reflectance (percent)
wavelength	value
14.0112	0.1355
13.7147	1.8703
13.4304	2.2837
13.1577	2.0738
12.8959	2.4881
12.6443	3.06
12.4023	3.5787
12.1694	4.4688
11.945	5.6114
11.7289	5.7106
11.5203	8.9034
11.3191	12.701
11.1248	13.7397
10.937	14.7925
10.7555	16.4301
10.5799	17.0531
10.4099	11.748
10.2454	11.1898
10.0859	10.0553
9.9313	8.6674
9.7814	8.7724
9.636	8.7208
9.4948	8.3559
9.3577	7.3083
9.2245	3.9612
9.095	2.4774
8.9691	1.7937
8.8467	1.4772
8.7275	1.3475
8.6116	1.2858
8.4986	1.3137
8.3886	1.3615
8.2814	1.38
8.1769	1.3683
8.075	1.3821
7.9756	1.3878
7.8786	1.4529
7.784	1.5138
7.6916	1.5532
7.6014	1.6094
7.5133	1.634
7.4272	1.686
7.343	1.6898
7.2607	1.7428
7.1803	1.8031
7.1016	1.866
7.0246	1.9399
6.9493	2.014
6.8755	2.1535
6.8034	2.1853
6.7327	2.3625
6.6634	2.4415
6.5956	2.4342
6.5292	2.396
6.464	2.4054
6.4002	2.4026
6.3376	2.3632
6.2762	2.3171
6.216	2.2836
6.157	2.3273
6.099	2.3536
6.0421	2.2859
5.9863	2.2491
5.9315	2.3857
5.8777	2.633
5.8249	2.8395
5.773	3.0225
5.722	3.202
5.6719	3.3745
5.6227	3.4195
5.5744	3.4982
5.5268	3.6984
5.4801	3.7971
5.4341	3.9014
5.3889	4.0111
5.3445	4.1437
5.3008	4.2564
5.2578	4.3521
5.2154	4.4226
5.1738	4.5656
5.1328	4.7036
5.0925	4.8417
5.0528	4.9418
5.0137	4.9849
4.9752	4.9877
4.9373	5.0625
4.9	5.2654
4.8632	5.6264
4.827	5.8948
4.7913	6.0846
4.7561	6.199
4.7215	6.3459
4.6873	6.4617
4.6536	6.5379
4.6205	6.6345
4.5877	6.7514
4.5555	6.8582
4.5237	6.9485
4.4923	7.0335
4.4614	7.128
4.4309	7.2117
4.4008	7.293
4.3711	7.3774
4.3418	7.4655
4.3129	7.5304
4.2844	7.5893
4.2563	7.6743
4.2285	7.7257
4.2011	7.7845
4.174	7.827
4.1473	7.8398
4.1209	7.893
4.0949	7.9071
4.0692	7.9516
4.0438	7.9348
4.0187	7.8925
3.994	7.8953
3.9695	7.8592
3.9453	7.8665
3.9214	7.8255
3.8979	7.7824
3.8746	7.7309
3.8515	7.6875
3.8288	7.5804
3.8063	7.5082
3.7841	7.455
3.7621	7.3813
3.7404	7.2935
3.7189	7.2
3.6977	7.1548
3.6767	7.0553
3.656	6.9764
3.6355	6.8751
3.6152	6.7982
3.5951	6.7092
3.5753	6.6047
3.5557	6.4873
3.5363	6.288
3.5171	5.9681
3.4981	5.6203
3.4793	5.639
3.4607	5.632
3.4423	5.4421
3.4241	5.1042
3.4061	5.1037
3.3883	5.2779
3.3707	5.3013
3.3533	5.5425
3.336	5.6428
3.3189	5.6426
3.302	5.5779
3.2853	5.4839
3.2687	5.4204
3.2523	5.3163
3.2361	5.2784
3.22	5.2259
3.204	5.1635
3.1883	5.0553
3.1727	5.0172
3.1572	4.89
3.1419	4.8236
3.1268	4.7657
3.1117	4.6891
3.0969	4.6233
3.0821	4.553
3.0675	4.5511
3.0531	4.4843
3.0388	4.4426
3.0246	4.4213
3.0105	4.3943
2.9966	4.3277
2.9828	4.3589
2.9692	4.3348
2.9556	4.3662
2.9422	4.3807
2.9289	4.3472
2.9157	4.3641
2.9027	4.381
2.8897	4.4709
2.8769	4.4714
2.8642	4.4813
2.8516	4.5161
2.8391	4.5089
2.8267	4.5878
2.8144	4.6026
2.8022	4.6741
2.7902	4.7119
2.7782	4.8551
2.7664	4.8633
2.7546	4.8968
2.7429	4.7423
2.7314	4.6743
2.7199	4.5933
2.7085	4.6774
2.6973	6.2423
2.6861	9.8166
2.675	13.0052
2.664	14.6287
2.6531	15.179
2.6423	15.8561
2.6315	16.2759
2.6209	16.3654
2.6103	16.2974
2.5999	16.2155
2.5895	16.1259
2.5792	15.8413
2.569	15.6527
2.5588	15.3126
2.5487	15.479
2.5388	15.4335
2.5289	15.4113
2.519	15.1282
2.5093	14.8476
2.4996	15.0126
2.49	15.5472
2.4805	15.5388
2.471	15.9776
2.4616	16.2686
2.4523	16.2989
2.4431	16.095
2.4339	16.075
2.4248	16.521
2.4157	16.515
2.4068	16.6675
2.3979	16.6378
2.389	16.7573
2.3802	16.856
2.3715	16.9748
2.3629	17.4398
2.3543	17.1991
2.3458	16.4669
2.3373	15.3468
2.3289	15.2958
2.3206	15.3675
2.3123	15.7378
2.3041	16.5492
2.2959	17.0615
2.2878	17.3789
2.2798	17.7698
2.2718	17.8464
2.2638	18.7694
2.2559	19.502
2.2481	19.7395
2.2403	20.2
2.2326	21.0477
2.225	21.573
2.2173	21.8374
2.2098	22.1533
2.2023	22.3544
2.1948	22.4709
2.1874	22.5553
2.18	22.6298
2.1727	22.7676
2.1655	22.7763
2.1583	22.7901
2.1511	22.7027
2.144	22.5436
2.1369	22.4896
2.1299	22.3504
2.1229	22.6223
2.116	22.5124
2.1091	22.5607
2.1023	22.7144
2.0955	22.7622
2.0887	22.9553
2.082	23.1133
2.06	23.2273
2.028	22.4855
1.996	21.6669
1.964	21.3289
1.932	21.3638
1.9	22.9759
1.868	26.403
1.836	27.2818
1.804	27.3277
1.772	27.377
1.74	27.478
1.708	27.2653
1.676	27.1755
1.644	26.4514
1.612	25.4679
1.58	24.3391
1.548	22.982
1.516	21.2566
1.484	20.181
1.452	18.9518
1.42	17.7675
1.388	16.0596
1.356	16.4202
1.324	15.9577
1.292	15.4665
1.26	15.1826
1.228	15.0607
1.196	14.7675
1.164	14.7649
1.132	14.5811
1.1	14.508
1.068	14.5189
1.036	14.4868
1.004	14.8368
0.972	15.4509
0.94	16.2899
0.908	17.0985
0.876	17.7075
0.844	18.5728
0.812	19.5738
0.795	20.4667
0.787	21.2396
0.779	21.3569
0.771	21.5989
0.763	22.0221
0.755	22.4752
0.747	22.9981
0.739	23.3713
0.731	23.4351
0.723	24.1673
0.715	24.5092
0.707	25.1175
0.699	25.206
0.691	25.2867
0.683	25.612
0.675	25.8896
0.667	25.9857
0.659	26.681
0.651	26.2727
0.643	27.0711
0.635	26.6236
0.627	27.0869
0.619	26.9235
0.611	27.5384
0.603	27.8675
0.595	28.0646
0.587	27.9101
0.579	28.2795
0.571	28.1941
0.563	28.144
0.555	27.7258
0.547	27.7784
0.539	27.14
0.531	26.4625
0.523	25.9727
0.515	25.3531
0.507	24.5221
0.499	23.8089
0.491	22.8744
0.483	22.3367
0.475	21.5498
0.467	20.759
0.459	19.9469
0.451	19.5051
0.443	19.3743
0.435	18.5935
0.427	17.9931
0.419	17.5648
0.411	16.8565
0.403	16.4266
