Name: 68501.609
Type: Soil
Class: Lunar
Subclass: Highlands
Particle Size: Fine
Sample No.: 68501.609
Owner: JHU
Origin: Apollo 16 landing site via the NASA Lunar Sample Repository at Johnson
Description: This sample is one of a suite of relatively less aluminous soils
Measurement: Directional (10 degree) hemispherical reflectance
X Units: Wavelength (micrometers)
Y Units: Reflectance (percent)
wavelength	value
14.011	0.6579
13.788	0.8536
13.571	0.8628
13.361	1.0581
13.158	1.0775
12.96	1.1702
12.769	1.4006
12.583	1.8474
12.402	2.1754
12.227	2.3086
12.056	2.2372
11.89	2.1511
11.729	2.1635
11.572	2.1745
11.419	2.182
11.27	2.164
11.125	2.1367
10.983	2.1858
10.846	2.2472
10.711	2.1834
10.58	2.0806
10.452	1.943
10.327	1.76
10.205	1.5719
10.086	1.4975
9.97	1.4225
9.856	1.4054
9.745	1.3856
9.636	1.3222
9.53	1.2041
9.426	1.13
9.324	1.0907
9.225	1.0897
9.127	1.1561
9.032	1.1465
8.938	1.13
8.847	1.0902
8.757	1.0702
8.669	1.0401
8.583	0.9579
8.499	0.8296
8.416	0.6919
8.335	0.5206
8.255	0.4423
8.177	0.452
8.1	0.5563
8.025	0.7685
7.951	1.0761
7.879	1.4882
7.808	1.9655
7.737	2.4789
7.669	3.0462
7.601	3.5762
7.535	4.1448
7.47	4.6823
7.406	5.2541
7.343	5.7706
7.281	6.2763
7.22	6.7458
7.16	7.2236
7.102	7.598
7.044	7.9734
6.987	8.3462
6.931	8.6802
6.875	8.9018
6.821	9.1143
6.768	9.3372
6.715	9.5142
6.663	9.6493
6.612	9.8106
6.562	10.009
6.513	10.239
6.464	10.433
6.416	10.614
6.369	10.639
6.322	10.667
6.276	10.789
6.231	10.887
6.186	10.981
6.142	11.118
6.099	11.262
6.056	11.377
6.014	11.581
5.973	12.022
5.931	12.603
5.891	13.166
5.851	13.693
5.812	14.223
5.773	14.729
5.735	15.115
5.697	15.378
5.66	15.599
5.623	15.885
5.586	16.196
5.551	16.346
5.515	16.351
5.48	16.357
5.446	16.436
5.411	16.733
5.378	17.116
5.345	17.5
5.312	17.788
5.279	18.126
5.247	18.507
5.215	18.915
5.184	19.301
5.153	19.797
5.123	20.316
5.093	20.787
5.063	21.213
5.033	21.7
5.004	22.17
4.975	22.649
4.947	23.126
4.919	23.606
4.891	24.062
4.863	24.48
4.836	24.912
4.809	25.306
4.782	25.652
4.756	26.008
4.73	26.361
4.704	26.778
4.679	27.152
4.654	27.508
4.629	27.919
4.604	28.363
4.58	28.746
4.556	29.064
4.532	29.319
4.508	29.552
4.485	29.745
4.461	29.855
4.439	29.934
4.416	30.018
4.393	30.115
4.371	30.259
4.349	30.398
4.327	30.563
4.306	30.723
4.284	30.915
4.263	31.042
4.242	31.143
4.222	31.208
4.201	31.247
4.181	31.284
4.161	31.329
4.141	31.35
4.121	31.362
4.101	31.382
4.082	31.393
4.063	31.392
4.044	31.409
4.025	31.42
4.006	31.415
3.988	31.433
3.97	31.425
3.951	31.412
3.933	31.396
3.916	31.392
3.898	31.364
3.88	31.346
3.863	31.306
3.846	31.271
3.829	31.235
3.812	31.221
3.795	31.142
3.779	31.084
3.762	31.055
3.746	30.991
3.73	30.943
3.714	30.86
3.698	30.812
3.682	30.732
3.666	30.674
3.651	30.612
3.636	30.547
3.62	30.473
3.605	30.41
3.59	30.346
3.575	30.262
3.561	30.215
3.546	30.128
3.531	30.075
3.517	30.069
3.503	30.023
3.489	29.94
3.475	29.848
3.461	29.782
3.447	29.735
3.433	29.702
3.42	29.657
3.406	29.535
3.393	29.437
3.38	29.333
3.366	29.216
3.353	29.131
3.34	28.978
3.327	28.9
3.315	28.823
3.302	28.735
3.289	28.636
3.277	28.547
3.265	28.507
3.252	28.406
3.24	28.343
3.228	28.214
3.216	28.133
3.204	28.039
3.192	27.949
3.18	27.891
3.169	27.798
3.157	27.718
3.146	27.636
3.134	27.571
3.123	27.452
3.112	27.405
3.101	27.337
3.09	27.244
3.079	27.205
3.067	27.156
3.057	27.075
3.046	27.048
3.035	26.986
3.025	26.897
3.014	26.859
3.004	26.775
2.993	26.684
2.983	26.658
2.973	26.6
2.962	26.568
2.952	26.508
2.942	26.492
2.932	26.484
2.922	26.416
2.912	26.446
2.903	26.373
2.893	26.35
2.883	26.341
2.874	26.366
2.864	26.309
2.855	26.303
2.845	26.34
2.836	26.316
2.827	26.315
2.817	26.403
2.808	26.466
2.799	26.557
2.79	26.678
2.781	26.856
2.772	27.037
2.763	27.285
2.755	27.482
2.746	27.725
2.737	27.934
2.728	28.096
2.72	28.241
2.711	28.307
2.703	28.338
2.695	28.301
2.686	28.32
2.678	28.318
2.67	28.408
2.661	28.424
2.653	28.42
2.645	28.37
2.637	28.376
2.629	28.32
2.621	28.286
2.613	28.234
2.605	28.187
2.597	28.178
2.59	28.117
2.582	28.059
2.574	28.063
2.566	27.952
2.559	27.942
2.551	27.893
2.544	27.84
2.536	27.814
2.529	27.751
2.522	27.712
2.514	27.663
2.507	27.601
2.5	27.582
2.492	27.516
2.485	27.483
2.478	27.408
2.471	27.383
2.464	27.311
2.457	27.282
2.45	27.273
2.443	27.214
2.436	27.184
2.429	27.13
2.422	27.078
2.416	27.045
2.409	26.986
2.402	26.912
2.396	26.918
2.389	26.866
2.382	26.803
2.376	26.756
2.369	26.693
2.363	26.673
2.356	26.6
2.35	26.59
2.344	26.547
2.337	26.5
2.331	26.444
2.325	26.402
2.318	26.376
2.312	26.312
2.306	26.277
2.3	26.213
2.294	26.177
2.288	26.116
2.282	26.074
2.276	26.081
2.27	26
2.264	25.944
2.258	25.928
2.252	25.852
2.246	25.855
2.24	25.81
2.235	25.739
2.229	25.688
2.223	25.645
2.217	25.594
2.212	25.564
2.206	25.558
2.2	25.482
2.195	25.491
2.189	25.414
2.184	25.37
2.178	25.345
2.173	25.268
2.167	25.197
2.162	25.213
2.156	25.152
2.151	25.13
2.146	25.049
2.14	25.042
2.135	25.01
2.13	24.95
2.125	24.885
2.119	24.912
2.114	24.902
2.109	24.816
2.104	24.81
2.099	24.752
2.094	24.675
2.089	24.642
2.084	24.612
