Name: Green Quartzite
Type: Rocks
Class: Metamorphic
Subclass: Quartzite
Particle Size: 500-1500 Micrometer
Sample No.: qtzite2.doc
Owner: JHU
Wavelength Range: All
Origin: Sample No. 376, The Hunt and Salisbury Collection at the U.S.
Description: This medium to fine-grained rock contains aligned quartz grains
Measurement: Directional (10 Degree) Hemispherical Reflectance
X Units: Wavelength (micrometers)
Y Units: Reflectance (percent)
wavelength	value
14.9831	2.6069
14.6445	3.0566
14.3209	2.6826
14.0112	2.8202
13.7147	3.166
13.4304	3.4331
13.1577	3.8007
12.8959	5.7421
12.6443	5.0475
12.4023	4.364
12.1694	1.6376
11.945	2.3433
11.7289	2.9183
11.5203	3.3535
11.3191	3.736
11.1248	4.1504
10.937	4.3562
10.7555	4.7034
10.5799	5.0676
10.4099	5.6758
10.2454	6.3265
10.0859	6.9865
9.9313	7.8519
9.7814	9.0483
9.636	11.1213
9.4948	13.2117
9.3577	22.3035
9.2245	28.1017
9.095	28.7802
8.9691	26.9944
8.8467	28.0537
8.7275	26.1073
8.6116	18.9981
8.4986	26.9096
8.3886	26.6018
8.2814	27.083
8.1769	26.0012
8.075	16.422
7.9756	9.416
7.8786	4.5914
7.784	2.6289
7.6916	1.5736
7.6014	0.9667
7.5133	0.7408
7.4272	0.6522
7.343	0.6475
7.2607	0.6853
7.1803	0.7386
7.1016	0.7969
7.0246	0.8357
6.9493	0.912
6.8755	0.925
6.8034	0.9589
6.7327	0.9906
6.6634	1.0481
6.5956	1.0924
6.5292	1.1405
6.464	1.3262
6.4002	1.3776
6.3376	1.2921
6.2762	1.2179
6.216	1.2426
6.157	1.2994
6.099	1.4661
6.0421	1.5762
5.9863	1.5651
5.9315	1.5661
5.8777	1.7112
5.8249	1.9054
5.773	2.0807
5.722	2.21
5.6719	2.0743
5.6227	1.8088
5.5744	1.764
5.5268	1.8327
5.4801	1.9878
5.4341	2.0222
5.3889	1.8273
5.3445	1.7392
5.3008	1.7671
5.2578	1.8626
5.2154	2.1193
5.1738	2.2005
5.1328	2.2154
5.0925	2.2133
5.0528	2.1773
5.0137	2.1853
4.9752	2.3194
4.9373	2.6476
4.9	3.4686
4.8632	5.8816
4.827	8.1069
4.7913	10.0588
4.7561	11.7873
4.7215	12.6578
4.6873	10.2653
4.6536	12.9136
4.6205	17.0223
4.5877	18.9145
4.5555	18.1872
4.5237	13.6794
4.4923	9.3748
4.4614	8.8257
4.4309	10.4052
4.4008	12.5441
4.3711	16.2432
4.3418	19.7125
4.3129	20.1893
4.2844	19.2188
4.2563	20.7396
4.2285	21.488
4.2011	21.995
4.174	23.4609
4.1473	25.1072
4.1209	27.0913
4.0949	29.6974
4.0692	31.7795
4.0438	32.0625
4.0187	31.6436
3.994	32.0419
3.9695	33.6383
3.9453	35.7611
3.9214	37.0508
3.8979	36.5175
3.8746	35.0087
3.8515	34.3172
3.8288	34.9881
3.8063	35.8797
3.7841	35.4288
3.7621	33.989
3.7404	33.01
3.7189	33.8542
3.6977	36.0824
3.6767	38.9093
3.656	41.2171
3.6355	42.3071
3.6152	42.8165
3.5951	43.316
3.5753	44.2024
3.5557	45.3687
3.5363	46.5395
3.5171	47.3421
3.4981	47.6885
3.4793	48.5207
3.4607	48.8148
3.4423	48.3161
3.4241	47.2469
3.4061	46.5611
3.3883	46.5023
3.3707	46.0233
3.3533	45.8224
3.336	45.4478
3.3189	44.9394
3.302	44.2107
3.2853	43.4697
3.2687	42.9387
3.2523	42.2702
3.2361	41.5614
3.22	40.6537
3.204	39.6522
3.1883	38.658
3.1727	37.6873
3.1572	36.6662
3.1419	35.2017
3.1268	33.9241
3.1117	33.5206
3.0969	33.2518
3.0821	32.7166
3.0675	31.8051
3.0531	30.4124
3.0388	29.4985
3.0246	29.2946
3.0105	29.0426
2.9966	28.6625
2.9828	28.0667
2.9692	27.4747
2.9556	27.1069
2.9422	26.9264
2.9289	26.3851
2.9157	25.8063
2.9027	25.5216
2.8897	25.4335
2.8769	25.6412
2.8642	25.9207
2.8516	26.1506
2.8391	26.1066
2.8267	25.7319
2.8144	24.5374
2.8022	21.1934
2.7902	14.3539
2.7782	9.3815
2.7664	5.5997
2.7546	4.638
2.7429	4.8377
2.7314	5.0368
2.7199	7.023
2.7085	14.4522
2.6973	19.7985
2.6861	28.1583
2.675	33.7027
2.664	37.3665
2.6531	40.3063
2.6423	41.5356
2.6315	42.089
2.6209	41.8404
2.6103	40.1902
2.5999	40.8844
2.5895	43.8654
2.5792	45.9558
2.569	46.1417
2.5588	47.5382
2.5487	47.4934
2.5388	49.0431
2.5289	48.7476
2.519	46.9094
2.5093	45.1179
2.4996	44.5136
2.49	44.249
2.4805	44.5962
2.471	44.8262
2.4616	44.2502
2.4523	43.4195
2.4431	42.8007
2.4339	42.5882
2.4248	43.8964
2.4157	46.0038
2.4068	48.0907
2.3979	49.4111
2.389	49.3349
2.3802	49.8412
2.3715	50.8732
2.3629	50.5074
2.3543	49.0576
2.3458	48.3964
2.3373	49.8339
2.3289	51.1806
2.3206	52.5471
2.3123	55.5378
2.3041	58.4298
2.2959	60.7352
2.2878	62.4052
2.2798	64.0667
2.2718	65.4822
2.2638	66.0451
2.2559	66.2731
2.2481	66.3432
2.2403	65.9932
2.2326	64.8089
2.225	63.0548
2.2173	59.2965
2.2098	50.1507
2.2023	44.5574
2.1948	41.8032
2.1874	45.0544
2.18	50.7733
2.1727	52.3308
2.1655	50.7262
2.1583	60.1668
2.1511	65.58
2.144	69.3015
2.1369	70.9192
2.1299	71.7689
2.1229	72.2028
2.116	72.7581
2.1091	73.9026
2.1023	75.0157
2.0955	76.0179
2.0887	76.6819
2.082	76.7837
2.06	78.4619
2.028	79.6578
1.996	80.0576
1.964	79.7031
1.932	78.4336
1.9	78.492
1.868	80.501
1.836	80.4121
1.804	81.5985
1.772	81.7209
1.74	81.93
1.708	81.4942
1.676	81.9125
1.644	82.2275
1.612	81.709
1.58	81.8917
1.548	81.6846
1.516	81.5293
1.484	80.5223
1.452	80.7511
1.42	77.6278
1.388	59.8268
1.356	77.8705
1.324	79.1388
1.292	79.9714
1.26	79.3921
1.228	78.6724
1.196	79.1829
1.164	79.2681
1.132	77.9764
1.1	77.5498
1.068	77.3441
1.036	77.1496
1.004	76.7551
0.972	76.4684
0.94	75.9131
0.908	76.2535
0.876	77.2303
0.844	77.2847
0.812	76.704
0.795	76.0674
0.787	75.666
0.779	75.3757
0.771	75.8189
0.763	75.514
0.755	74.7342
0.747	74.4326
0.739	73.6113
0.731	72.942
0.723	71.4195
0.715	70.1101
0.707	67.8792
0.699	66.8054
0.691	61.9198
0.683	61.0198
0.675	59.8637
0.667	58.0209
0.659	56.5004
0.651	54.995
0.643	53.7382
0.635	52.9594
0.627	51.9478
0.619	51.3841
0.611	51.3459
0.603	51.1677
0.595	51.8135
0.587	51.9147
0.579	52.5441
0.571	53.3055
0.563	53.7669
0.555	56.6174
0.547	57.2249
0.539	57.3947
0.531	58.2648
0.523	58.2912
0.515	58.2205
0.507	57.4504
0.499	56.4122
0.491	55.1995
0.483	53.7953
0.475	52.3295
0.467	50.6308
0.459	49.316
0.451	48.1125
0.443	46.9707
0.435	45.794
0.427	44.7055
0.419	44.0303
0.411	43.5837
0.403	43.1798
