Name: Sanidine (K,Na)Al3O8
Type: Mineral
Class: Silicates
Subclass: Tectosilicates (Feldspar Group)
Particle Size: Fine (0-74 Micrometers)
Sample No.: sanidine.1
Owner: JHU
Wavelength Range: IR
Origin: Volkesfeld bei Kempenick, Eifel, Rheinland, Germany via Dave
Description: The hand sample was a large (56.16 g) fragment of what
Measurement: Bidirectional reflectance
X Units: Wavelength (micrometers)
Y Units: Reflectance (percent)
wavelength	value
25.0442	1.7812
24.3388	1.9111
23.6719	2.0937
23.0407	2.1174
22.4422	2.1174
21.8741	1.6177
21.334	1.427
20.8199	1.6428
20.33	2.0061
19.8627	2.4629
19.4163	2.4863
18.9896	2.5688
18.5812	2.0134
18.19	1.6819
17.815	1.7705
17.4551	1.8899
17.1094	1.9563
16.7772	2.0273
16.4576	1.9246
16.15	1.6233
15.8537	1.3525
15.568	1.2693
15.2925	1.3967
15.0265	1.7183
14.7697	1.9927
14.5214	1.8828
14.2814	1.498
14.0492	1.2849
13.8244	1.1904
13.6067	1.1733
13.3957	1.2146
13.1912	1.2593
12.9929	1.2136
12.8004	1.2214
12.6135	1.2891
12.432	2.0786
12.2557	3.7373
12.0843	4.706
11.9176	4.8584
11.7555	4.793
11.5977	4.6304
11.444	4.425
11.2944	4.1899
11.1487	3.8669
11.0067	3.4841
10.8682	3.0564
10.7332	2.6279
10.6015	2.2107
10.473	1.8784
10.3476	1.6716
10.2251	1.6018
10.1056	1.6152
9.98873	1.6697
9.87458	1.7288
9.763	1.7495
9.65392	1.8406
9.54724	1.9446
9.44291	1.9736
9.34082	1.812
9.24091	1.7087
9.14312	1.6514
9.04739	1.6448
8.95363	1.6426
8.8618	1.7356
8.77183	1.9746
8.68368	2.2241
8.59727	2.4285
8.51257	2.6377
8.42951	2.9726
8.34807	3.3577
8.26819	3.2881
8.18981	2.792
8.11292	2.1521
8.03745	1.4822
7.96337	0.8547
7.89064	0.4866
7.81924	0.4822
7.74911	0.7383
7.68023	1.1343
7.61256	1.5967
7.54608	2.0583
7.48074	2.4827
7.41653	2.8765
7.35341	3.2734
7.29136	3.6733
7.23034	4.0752
7.17033	4.4924
7.11132	4.8645
7.05327	5.168
6.99616	5.3755
6.93996	5.5361
6.88467	5.6582
6.83024	5.7883
6.77667	5.9521
6.72393	6.0974
6.67201	6.218
6.62089	6.3161
6.57054	6.3667
6.52095	6.3662
6.4721	6.3196
6.42398	6.2058
6.37657	6.0452
6.32986	5.9289
6.28382	5.8747
6.23845	5.9004
6.19373	5.9919
6.14965	6.1257
6.10619	6.2922
6.06334	6.4624
6.02109	6.613
5.97942	6.7444
5.93832	6.8171
5.89778	6.779
5.8578	6.6587
5.81835	6.5076
5.77943	6.3596
5.74103	6.2356
5.70314	6.1167
5.66574	6.031
5.62883	6.0591
5.5924	6.2087
5.55644	6.4822
5.52093	6.855
5.48588	7.2607
5.45127	7.6201
5.41709	7.9314
5.38334	8.1682
5.35	8.3901
5.31708	8.625
5.28456	8.9035
5.25243	9.2929
5.2207	9.7851
5.18934	10.3405
5.15836	10.9011
5.12775	11.4533
5.09749	11.9924
5.0676	12.4978
5.03805	12.8781
5.00884	13.1013
4.97998	13.1259
4.95144	13.028
4.92322	12.8757
4.89533	12.7334
4.86775	12.6723
4.84048	12.6709
4.81351	12.7121
4.78684	12.7426
4.76047	12.7834
4.73439	12.7912
4.70859	12.8298
4.68306	12.8711
4.65782	12.9804
4.63284	13.1521
4.60814	13.3676
4.58369	13.6115
4.5595	13.8737
4.53557	14.1543
4.51188	14.424
4.48845	14.717
4.46525	14.9746
4.44229	15.2634
4.41957	15.5119
4.39708	15.7605
4.37481	16.0275
4.35277	16.2573
4.33096	16.4921
4.30935	16.7014
4.28797	16.9077
4.26679	17.0791
4.24583	17.2382
4.22506	17.3491
4.2045	17.4387
4.18414	17.4929
4.16398	17.549
4.14401	17.5805
4.12423	17.5842
4.10464	17.604
4.08523	17.6386
4.066	17.6352
4.04696	17.6716
4.02809	17.7019
4.0094	17.7304
3.99088	17.7436
3.97253	17.7795
3.95435	17.7956
3.93634	17.8405
3.91848	17.8676
3.90079	17.9045
3.88326	17.927
3.86589	17.9389
3.84867	17.9707
3.8316	17.9873
3.81468	18.0087
3.79791	18.0241
3.78129	18.05
3.76482	18.0566
3.74848	18.0551
3.73229	18.0615
3.71624	18.0581
3.70032	18.038
3.68454	18.0217
3.6689	18.01
3.65338	18.0146
3.638	18.0031
3.62275	17.9763
3.60762	17.9677
3.59262	17.9494
3.57775	17.9226
3.56299	17.8969
3.54836	17.8728
3.53385	17.8183
3.51945	17.7702
3.50517	17.6198
3.49101	17.6379
3.47696	17.6474
3.46303	17.6428
3.4492	17.5769
3.43549	17.4829
3.42188	17.3073
3.40838	17.2773
3.39499	17.3615
3.38171	17.3676
3.36852	17.3547
3.35544	17.3664
3.34246	17.3815
3.32958	17.3713
3.3168	17.3391
3.30411	17.3222
3.29153	17.2951
3.27903	17.2502
3.26664	17.2175
3.25433	17.177
3.24212	17.1369
3.23	17.1193
3.21797	17.0813
3.20603	17.0295
3.19418	17.0073
3.18241	16.9748
3.17074	16.9357
3.15914	16.9126
3.14763	16.8647
3.13621	16.8227
3.12487	16.7954
3.11361	16.7675
3.10243	16.7387
3.09133	16.7177
3.0803	16.6792
3.06936	16.6511
3.0585	16.6123
3.04771	16.5996
3.037	16.5673
3.02636	16.5385
3.0158	16.5127
3.00531	16.4687
2.99489	16.4711
2.98454	16.4472
2.97427	16.4018
2.96407	16.3877
2.95393	16.3632
2.94387	16.3574
2.93387	16.3637
2.92394	16.3581
2.91408	16.3877
2.90429	16.4597
2.89456	16.5197
2.88489	16.5505
2.87529	16.6079
2.86576	16.6867
2.85628	16.767
2.84687	16.8403
2.83752	16.9165
2.82823	17.0014
2.81901	17.08
2.80984	17.1684
2.80073	17.2688
2.79168	17.3081
2.78269	17.4121
2.77376	17.5224
2.76488	17.6289
2.75606	17.7861
2.7473	17.934
2.73859	18.1108
2.72994	18.2876
2.72134	18.4834
2.7128	18.562
2.70431	18.6049
2.69587	18.7202
2.68748	18.7739
2.67915	18.9082
2.67087	19.0581
2.66264	19.1501
2.65446	19.1894
2.64633	19.197
2.63825	19.206
2.63021	19.267
2.62223	19.2224
2.6143	19.2475
2.60641	19.2272
2.59857	19.227
2.59078	19.2392
2.58304	19.2846
2.57534	19.259
2.56768	19.2492
2.56008	19.2641
2.55251	19.2148
2.54499	19.218
2.53752	19.2404
2.53009	19.2368
2.5227	19.175
2.51536	19.1621
2.50806	19.208
2.5008	19.2084
2.49358	19.1389
2.4864	19.1828
2.47927	19.1896
2.47218	19.1281
2.46512	19.1274
2.45811	19.1369
2.45114	19.1271
2.4442	19.0717
2.43731	19.1
2.43045	19.1066
2.42363	19.0812
2.41685	19.1284
2.41011	19.1142
2.40341	19.0634
2.39674	19.0754
2.39011	19.0246
2.38352	19.0781
2.37696	19.0351
2.37044	19.0424
2.36395	19.0229
2.35751	18.9433
2.35109	18.9982
2.34471	18.9863
2.33836	18.9113
2.33205	18.8957
2.32578	18.9052
2.31953	18.9169
2.31332	18.882
2.30714	18.8605
2.301	18.8857
2.29489	18.8627
2.28881	18.833
2.28276	18.7944
2.27675	18.7573
2.27076	18.725
2.26481	18.7661
2.25889	18.7631
2.253	18.6918
2.24714	18.7231
2.24131	18.729
2.23551	18.7539
2.22974	18.6679
2.224	18.6562
2.21829	18.6513
2.21261	18.684
2.20696	18.6562
2.20134	18.665
2.19574	18.6674
2.19018	18.6411
2.18464	18.622
2.17913	18.5961
2.17365	18.6411
2.16819	18.6811
2.16277	18.6796
2.15737	18.7294
2.15199	18.6118
2.14665	18.5903
2.14133	18.6015
2.13603	18.6503
2.13077	18.6113
2.12552	18.6103
2.12031	18.6528
2.11512	18.604
2.10995	18.5878
2.10481	18.6269
2.0997	18.5751
2.09461	18.6508
2.08954	18.7099
2.0845	18.6352
2.07948	18.6162
