Name: 12023.139
Type: Soil
Class: Lunar
Subclass: Maria
Particle Size: Fine
Sample No.: 12023.139
Owner: JHU
Origin: Apollo 12 landing site via the NASA Lunar Sample Repository at Johnson
Description: This sample is one of a suite of soils of similar chemistry, but
Measurement: Directional (10 degree) hemispherical reflectance
X Units: Wavelength (micrometers)
Y Units: Reflectance (percent)
wavelength	value
14.011	1.3276
13.788	1.3437
13.571	1.3491
13.361	1.3785
13.158	1.4663
12.96	1.5651
12.769	1.6799
12.583	1.8301
12.402	2.058
12.227	2.1633
12.056	2.1709
11.89	2.064
11.729	2.1522
11.572	2.1946
11.419	2.2438
11.27	2.1766
11.125	2.1415
10.983	2.0617
10.846	2.1126
10.711	2.0849
10.58	1.9857
10.452	1.9265
10.327	1.8275
10.205	1.7647
10.086	1.7254
9.97	1.7181
9.856	1.6613
9.745	1.6778
9.636	1.6603
9.53	1.6645
9.426	1.6405
9.324	1.6109
9.225	1.594
9.127	1.527
9.032	1.4169
8.938	1.2158
8.847	1.0223
8.757	0.9333
8.669	0.8514
8.583	0.7952
8.499	0.7552
8.416	0.7502
8.335	0.7339
8.255	0.7703
8.177	0.9127
8.1	1.1395
8.025	1.4988
7.951	2.0513
7.879	2.6682
7.808	3.2378
7.737	3.8303
7.669	4.426
7.601	5.0077
7.535	5.5401
7.47	6.0957
7.406	6.6142
7.343	7.0868
7.281	7.5448
7.22	7.9518
7.16	8.3956
7.102	8.7231
7.044	9.0758
6.987	9.3987
6.931	9.6628
6.875	9.9266
6.821	10.143
6.768	10.299
6.715	10.416
6.663	10.447
6.612	10.509
6.562	10.58
6.513	10.693
6.464	10.811
6.416	10.896
6.369	10.928
6.322	10.951
6.276	10.971
6.231	11.004
6.186	11.126
6.142	11.201
6.099	11.352
6.056	11.474
6.014	11.608
5.973	11.858
5.931	12.139
5.891	12.401
5.851	12.669
5.812	12.898
5.773	13.111
5.735	13.281
5.697	13.354
5.66	13.428
5.623	13.568
5.586	13.739
5.551	13.931
5.515	13.983
5.48	14.029
5.446	14.002
5.411	14.013
5.378	14.013
5.345	14.029
5.312	14.065
5.279	14.188
5.247	14.372
5.215	14.596
5.184	14.83
5.153	15.043
5.123	15.315
5.093	15.542
5.063	15.796
5.033	16.049
5.004	16.319
4.975	16.607
4.947	16.917
4.919	17.251
4.891	17.518
4.863	17.772
4.836	18.044
4.809	18.281
4.782	18.506
4.756	18.706
4.73	18.938
4.704	19.161
4.679	19.38
4.654	19.57
4.629	19.763
4.604	19.9
4.58	20.042
4.556	20.143
4.532	20.247
4.508	20.305
4.485	20.354
4.461	20.403
4.439	20.443
4.416	20.46
4.393	20.472
4.371	20.503
4.349	20.546
4.327	20.562
4.306	20.604
4.284	20.614
4.263	20.614
4.242	20.642
4.222	20.631
4.201	20.623
4.181	20.613
4.161	20.575
4.141	20.613
4.121	20.58
4.101	20.568
4.082	20.565
4.063	20.557
4.044	20.528
4.025	20.553
4.006	20.501
3.988	20.504
3.97	20.484
3.951	20.474
3.933	20.466
3.916	20.395
3.898	20.36
3.88	20.359
3.863	20.315
3.846	20.266
3.829	20.235
3.812	20.246
3.795	20.148
3.779	20.135
3.762	20.107
3.746	20.041
3.73	20.019
3.714	19.982
3.698	19.941
3.682	19.892
3.666	19.842
3.651	19.829
3.636	19.774
3.62	19.726
3.605	19.693
3.59	19.672
3.575	19.621
3.561	19.555
3.546	19.525
3.531	19.477
3.517	19.478
3.503	19.47
3.489	19.375
3.475	19.377
3.461	19.297
3.447	19.298
3.433	19.295
3.42	19.26
3.406	19.161
3.393	19.133
3.38	19.091
3.366	19.016
3.353	18.94
3.34	18.883
3.327	18.806
3.315	18.799
3.302	18.758
3.289	18.734
3.277	18.688
3.265	18.642
3.252	18.606
3.24	18.511
3.228	18.473
3.216	18.41
3.204	18.381
3.192	18.302
3.18	18.29
3.169	18.209
3.157	18.167
3.146	18.147
3.134	18.075
3.123	18.056
3.112	18.045
3.101	18.018
3.09	17.898
3.079	17.874
3.067	17.808
3.057	17.784
3.046	17.739
3.035	17.753
3.025	17.676
3.014	17.639
3.004	17.598
2.993	17.508
2.983	17.462
2.973	17.453
2.962	17.395
2.952	17.344
2.942	17.33
2.932	17.247
2.922	17.234
2.912	17.242
2.903	17.173
2.893	17.104
2.883	17.077
2.874	17.056
2.864	17.078
2.855	16.969
2.845	16.996
2.836	16.935
2.827	16.929
2.817	16.891
2.808	16.839
2.799	16.93
2.79	16.96
2.781	16.982
2.772	16.979
2.763	17.113
2.755	17.157
2.746	17.217
2.737	17.269
2.728	17.282
2.72	17.295
2.711	17.301
2.703	17.281
2.695	17.244
2.686	17.241
2.678	17.172
2.67	17.176
2.661	17.163
2.653	17.068
2.645	17.027
2.637	17.008
2.629	16.952
2.621	16.919
2.613	16.897
2.605	16.813
2.597	16.785
2.59	16.749
2.582	16.664
2.574	16.622
2.566	16.621
2.559	16.522
2.551	16.461
2.544	16.405
2.536	16.361
2.529	16.301
2.522	16.216
2.514	16.209
2.507	16.169
2.5	16.089
2.492	15.994
2.485	16.007
2.478	15.927
2.471	15.895
2.464	15.837
2.457	15.771
2.45	15.743
2.443	15.721
2.436	15.651
2.429	15.574
2.422	15.546
2.416	15.499
2.409	15.411
2.402	15.409
2.396	15.404
2.389	15.318
2.382	15.294
2.376	15.214
2.369	15.185
2.363	15.106
2.356	15.134
2.35	15.092
2.344	15.016
2.337	14.947
2.331	14.913
2.325	14.856
2.318	14.924
2.312	14.831
2.306	14.832
2.3	14.697
2.294	14.776
2.288	14.667
2.282	14.616
2.276	14.639
2.27	14.533
2.264	14.561
2.258	14.497
2.252	14.454
2.246	14.443
2.24	14.357
2.235	14.339
2.229	14.254
2.223	14.31
2.217	14.222
2.212	14.208
2.206	14.22
2.2	14.143
2.195	14.177
2.189	14.149
2.184	14.128
2.178	14.092
2.173	14.087
2.167	13.987
2.162	14.022
2.156	13.919
2.151	13.911
2.146	13.894
2.14	13.894
2.135	13.873
2.13	13.914
2.125	13.848
2.119	13.797
2.114	13.705
2.109	13.69
2.104	13.754
2.099	13.641
2.094	13.705
2.089	13.61
2.084	13.682
