Name: Sodalite Na8Al6Si6O24Cl2
Type: Mineral
Class: Silicates
Subclass: Tectosilicates (Framework silicates); Feldspathoid Group
Particle Size: Coarse  (75 - 250  Micrometers)
Sample No.: sodalite.1
Owner: JHU
Wavelength Range: IR
Origin: Bancroft, Ontario, Canada via Norma Vergo.
Description: The hand sample was a large chunk of vivid blue
Measurement: Bidirectional reflectance
X Units: Wavelength (micrometers)
Y Units: Reflectance (percent)
wavelength	value
25.0442	1.4932
24.3388	1.6421
23.6719	2.2397
23.0407	5.383
22.4422	3.9473
21.8741	1.54
21.334	4.8887
20.8199	5.5044
20.33	3.4138
19.8627	0.3296
19.4163	0.178
18.9896	0.3557
18.5812	0.5669
18.19	0.7087
17.815	0.8108
17.4551	0.9145
17.1094	0.9319
16.7772	0.9707
16.4576	0.9607
16.15	0.9355
15.8537	0.9265
15.568	0.9351
15.2925	1.0352
15.0265	1.6741
14.7697	0.4705
14.5214	0.6599
14.2814	0.8874
14.0492	1.1882
13.8244	0.9228
13.6067	2.2634
13.3957	0.5486
13.1912	0.3303
12.9929	0.4951
12.8004	0.5996
12.6135	0.6643
12.432	0.7419
12.2557	0.7795
12.0843	0.8606
11.9176	0.9155
11.7555	0.9722
11.5977	1.0176
11.444	1.0608
11.2944	1.1226
11.1487	1.2129
11.0067	1.3144
10.8682	1.4751
10.7332	1.7043
10.6015	2.074
10.473	2.7593
10.3476	4.3506
10.2251	6.9338
10.1056	7.1584
9.98873	7.3974
9.87458	7.2141
9.763	7.094
9.65392	7.0993
9.54724	7.4324
9.44291	7.2673
9.34082	5.676
9.24091	4.1282
9.14312	2.9502
9.04739	2.0569
8.95363	1.3469
8.8618	0.7251
8.77183	0.3044
8.68368	0.104
8.59727	0.04
8.51257	0.0593
8.42951	0.0889
8.34807	0.1401
8.26819	0.2026
8.18981	0.2529
8.11292	0.2578
8.03745	0.2903
7.96337	0.3596
7.89064	0.427
7.81924	0.4473
7.74911	0.4819
7.68023	0.5176
7.61256	0.5295
7.54608	0.5205
7.48074	0.2959
7.41653	0.6162
7.35341	0.7329
7.29136	0.8108
7.23034	0.7869
7.17033	0.7444
7.11132	0.7454
7.05327	0.7847
6.99616	0.7197
6.93996	0.5474
6.88467	0.5422
6.83024	0.7104
6.77667	0.949
6.72393	1.0647
6.67201	1.1111
6.62089	0.9592
6.57054	0.8784
6.52095	1.0413
6.4721	0.9573
6.42398	0.8757
6.37657	0.8633
6.32986	0.9597
6.28382	0.9705
6.23845	0.8845
6.19373	0.7915
6.14965	0.7834
6.10619	0.6824
6.06334	0.7449
6.02109	0.7026
5.97942	0.7424
5.93832	0.5994
5.89778	0.5229
5.8578	0.4172
5.81835	0.8137
5.77943	1.2798
5.74103	1.4216
5.70314	1.4319
5.66574	1.5659
5.62883	1.8921
5.5924	2.1455
5.55644	2.033
5.52093	2.0915
5.48588	2.2869
5.45127	2.6121
5.41709	3.2366
5.38334	3.6982
5.35	3.9111
5.31708	3.9836
5.28456	4.0193
5.25243	4.0093
5.2207	3.7507
5.18934	3.0454
5.15836	1.9656
5.12775	1.2002
5.09749	2.2649
5.0676	2.7234
5.03805	2.9656
5.00884	3.0351
4.97998	3.2424
4.95144	2.9036
4.92322	2.0535
4.89533	2.1128
4.86775	2.124
4.84048	2.7519
4.81351	3.3784
4.78684	3.8223
4.76047	4.3909
4.73439	4.6619
4.70859	4.6001
4.68306	4.5622
4.65782	4.7971
4.63284	5.1177
4.60814	5.3415
4.58369	5.4763
4.5595	5.5652
4.53557	5.6157
4.51188	5.6636
4.48845	5.7175
4.46525	5.7744
4.44229	5.8201
4.41957	5.8352
4.39708	5.8081
4.37481	5.9038
4.35277	5.9375
4.33096	5.9187
4.30935	5.8918
4.28797	5.7629
4.26679	5.3855
4.24583	5.8962
4.22506	6.0434
4.2045	6.0974
4.18414	6.1203
4.16398	6.1267
4.14401	6.1116
4.12423	6.1091
4.10464	6.1448
4.08523	6.1894
4.066	6.219
4.04696	6.2358
4.02809	6.2493
4.0094	6.2356
3.99088	6.2109
3.97253	6.1887
3.95435	6.1799
3.93634	6.1723
3.91848	6.1789
3.90079	6.2092
3.88326	6.2275
3.86589	6.2278
3.84867	6.2119
3.8316	6.199
3.81468	6.1689
3.79791	6.0849
3.78129	5.9514
3.76482	5.7934
3.74848	5.9145
3.73229	6.0383
3.71624	6.081
3.70032	6.0903
3.68454	6.0808
3.6689	6.0674
3.65338	6.0698
3.638	6.0586
3.62275	6.0293
3.60762	6.0119
3.59262	5.989
3.57775	5.9621
3.56299	5.9272
3.54836	5.8716
3.53385	5.8491
3.51945	5.831
3.50517	5.7908
3.49101	5.7566
3.47696	5.7287
3.46303	5.6794
3.4492	5.6511
3.43549	5.612
3.42188	5.5742
3.40838	5.5307
3.39499	5.5022
3.38171	5.4863
3.36852	5.4387
3.35544	5.4287
3.34246	5.4197
3.32958	5.3752
3.3168	5.2883
3.30411	5.0469
3.29153	4.8611
3.27903	5.1582
3.26664	5.2053
3.25433	5.2102
3.24212	5.1789
3.23	5.1496
3.21797	5.1211
3.20603	5.0903
3.19418	5.0493
3.18241	5.0205
3.17074	4.97
3.15914	4.9311
3.14763	4.8862
3.13621	4.8357
3.12487	4.7886
3.11361	4.7517
3.10243	4.7036
3.09133	4.6545
3.0803	4.6096
3.06936	4.5676
3.0585	4.5246
3.04771	4.4712
3.037	4.4177
3.02636	4.3872
3.0158	4.345
3.00531	4.3025
2.99489	4.2583
2.98454	4.2261
2.97427	4.1904
2.96407	4.134
2.95393	4.0766
2.94387	4.0071
2.93387	3.9778
2.92394	3.9243
2.91408	3.8716
2.90429	3.8381
2.89456	3.7993
2.88489	3.7656
2.87529	3.7231
2.86576	3.6521
2.85628	3.54
2.84687	3.3955
2.83752	3.2414
2.82823	3.1594
2.81901	3.335
2.80984	3.7261
2.80073	4.0535
2.79168	4.3091
2.78269	4.4656
2.77376	4.5913
2.76488	4.7073
2.75606	4.7373
2.7473	4.8042
2.73859	4.8974
2.72994	5.366
2.72134	5.7117
2.7128	5.906
2.70431	6.0669
2.69587	6.2097
2.68748	6.3044
2.67915	6.3828
2.67087	6.4216
2.66264	6.5022
2.65446	6.5547
2.64633	6.5959
2.63825	6.6196
2.63021	6.6172
2.62223	6.6159
2.6143	6.6323
2.60641	6.6267
2.59857	6.6416
2.59078	6.6047
2.58304	6.5849
2.57534	6.6094
2.56768	6.6098
2.56008	6.623
2.55251	6.6328
2.54499	6.6426
2.53752	6.6435
2.53009	6.6216
2.5227	6.613
2.51536	6.594
2.50806	6.6172
2.5008	6.6023
2.49358	6.6023
2.4864	6.5781
2.47927	6.531
2.47218	6.5486
2.46512	6.5207
2.45811	6.5068
2.45114	6.48
2.4442	6.4404
2.43731	6.4316
2.43045	6.4121
2.42363	6.4355
2.41685	6.4604
2.41011	6.5107
2.40341	6.5359
2.39674	6.5471
2.39011	6.5722
2.38352	6.5459
2.37696	6.5967
2.37044	6.6035
2.36395	6.6052
2.35751	6.5974
2.35109	6.6247
2.34471	6.6059
2.33836	6.6123
2.33205	6.5869
2.32578	6.6326
2.31953	6.6186
2.31332	6.6174
2.30714	6.6284
2.301	6.605
2.29489	6.6177
2.28881	6.605
2.28276	6.603
2.27675	6.6333
2.27076	6.6482
2.26481	6.6162
2.25889	6.6184
2.253	6.625
2.24714	6.6362
2.24131	6.6299
2.23551	6.6211
2.22974	6.6357
2.224	6.6196
2.21829	6.6372
2.21261	6.636
2.20696	6.6362
2.20134	6.6084
2.19574	6.6167
2.19018	6.6196
2.18464	6.6357
2.17913	6.6216
2.17365	6.6347
2.16819	6.6245
2.16277	6.6421
2.15737	6.6792
2.15199	6.6538
2.14665	6.625
2.14133	6.6318
2.13603	6.646
2.13077	6.6396
2.12552	6.6626
2.12031	6.7095
2.11512	6.7012
2.10995	6.7143
2.10481	6.7292
2.0997	6.7263
2.09461	6.7239
2.08954	6.7283
2.0845	6.7483
2.07948	6.7466
