Name: Pyrite FeS2
Type: Mineral
Class: Sulfides
Particle Size: Fine (Less than 2  Micrometers)
Sample No.: pyrite.1
Owner: JHU
Wavelength Range: IR
Origin: Ambassaguas, Logrono, Castilla la Vieja, Spain via the
Description: Large cubic (3cm/side) piece with yellow metallic luster,
Measurement: Transmission
X Units: Wavelength (micrometers)
Y Units: Transmittance (percent)
wavelength	value
25.0442	30.9159
24.3388	12.0298
23.6719	13.5869
23.0407	44.4262
22.4422	82.2188
21.8741	74.3279
21.334	67.2889
20.8199	63.6849
20.33	61.0721
19.8627	58.8727
19.4163	57.1302
18.9896	55.3063
18.5812	53.7836
18.19	52.576
17.815	51.3905
17.4551	50.288
17.1094	48.9032
16.7772	46.7484
16.4576	45.6813
16.15	44.9774
15.8537	44.7977
15.568	44.3251
15.2925	43.5695
15.0265	42.5704
14.7697	41.8358
14.5214	41.4704
14.2814	40.5155
14.0492	39.6852
13.8244	38.9337
13.6067	38.3651
13.3957	37.4923
13.1912	36.807
12.9929	36.3524
12.8004	35.5253
12.6135	35.0917
12.432	34.8036
12.2557	34.6415
12.0843	34.309
11.9176	34.2062
11.7555	33.859
11.5977	33.5016
11.444	33.0585
11.2944	32.8381
11.1487	32.2531
11.0067	31.6288
10.8682	30.9811
10.7332	30.6606
10.6015	30.4098
10.473	29.913
10.3476	29.1481
10.2251	28.3788
10.1056	27.6547
9.98873	26.9028
9.87458	26.0788
9.763	25.3132
9.65392	24.7426
9.54724	24.0632
9.44291	23.0849
9.34082	22.206
9.24091	21.4692
9.14312	21.3706
9.04739	21.6689
8.95363	21.6669
8.8618	21.4555
8.77183	21.2509
8.68368	21.1711
8.59727	21.2424
8.51257	21.4199
8.42951	21.5888
8.34807	22.1425
8.26819	22.6818
8.18981	22.9936
8.11292	23.2231
8.03745	23.3337
7.96337	23.3371
7.89064	23.2497
7.81924	23.1042
7.74911	22.9067
7.68023	22.7011
7.61256	22.4943
7.54608	22.28
7.48074	22.0749
7.41653	21.8691
7.35341	21.6486
7.29136	21.4255
7.23034	21.2062
7.17033	20.945
7.11132	20.7404
7.05327	20.6137
6.99616	20.4726
6.93996	20.319
6.88467	20.1332
6.83024	19.9685
6.77667	19.8198
6.72393	19.6269
6.67201	19.4682
6.62089	19.3403
6.57054	19.207
6.52095	19.039
6.4721	18.8994
6.42398	18.7546
6.37657	18.5781
6.32986	18.4614
6.28382	18.3186
6.23845	18.1975
6.19373	18.1118
6.14965	17.9558
6.10619	17.7866
6.06334	17.6792
6.02109	17.5532
5.97942	17.5
5.93832	17.3374
5.89778	17.2168
5.8578	17.1118
5.81835	16.998
5.77943	16.8867
5.74103	16.8032
5.70314	16.6836
5.66574	16.5441
5.62883	16.4436
5.5924	16.3132
5.55644	16.2026
5.52093	16.0922
5.48588	15.9941
5.45127	15.8984
5.41709	15.7866
5.38334	15.6828
5.35	15.5774
5.31708	15.4812
5.28456	15.3791
5.25243	15.2895
5.2207	15.1948
5.18934	15.1128
5.15836	15.0207
5.12775	14.9316
5.09749	14.8481
5.0676	14.7588
5.03805	14.6682
5.00884	14.5752
4.97998	14.4729
4.95144	14.403
4.92322	14.3296
4.89533	14.2487
4.86775	14.1499
4.84048	14.0615
4.81351	13.988
4.78684	13.9157
4.76047	13.8205
4.73439	13.7365
4.70859	13.6518
4.68306	13.5671
4.65782	13.5102
4.63284	13.4275
4.60814	13.364
4.58369	13.2773
4.5595	13.2173
4.53557	13.1538
4.51188	13.0478
4.48845	12.9821
4.46525	12.9253
4.44229	12.8496
4.41957	12.7932
4.39708	12.7175
4.37481	12.6579
4.35277	12.5886
4.33096	12.5114
4.30935	12.4511
4.28797	12.3811
4.26679	12.3174
4.24583	12.2578
4.22506	12.1823
4.2045	12.1418
4.18414	12.0757
4.16398	12.0207
4.14401	11.9465
4.12423	11.9072
4.10464	11.8586
4.08523	11.7798
4.066	11.7077
4.04696	11.6657
4.02809	11.6128
4.0094	11.5576
3.99088	11.4914
3.97253	11.4341
3.95435	11.3728
3.93634	11.3091
3.91848	11.2549
3.90079	11.2173
3.88326	11.1438
3.86589	11.1035
3.84867	11.0388
3.8316	10.9978
3.81468	10.9675
3.79791	10.9052
3.78129	10.8569
3.76482	10.7978
3.74848	10.737
3.73229	10.6985
3.71624	10.6638
3.70032	10.6025
3.68454	10.5442
3.6689	10.4831
3.65338	10.4428
3.638	10.3928
3.62275	10.3325
3.60762	10.2888
3.59262	10.2253
3.57775	10.1858
3.56299	10.1364
3.54836	10.0871
3.53385	10.0476
3.51945	9.9763
3.50517	9.9377
3.49101	9.8979
3.47696	9.8459
3.46303	9.7829
3.4492	9.7434
3.43549	9.6894
3.42188	9.6382
3.40838	9.5971
3.39499	9.5805
3.38171	9.5234
3.36852	9.4983
3.35544	9.4282
3.34246	9.3781
3.32958	9.3503
3.3168	9.2898
3.30411	9.2651
3.29153	9.2138
3.27903	9.1848
3.26664	9.1098
3.25433	9.0781
3.24212	9.0386
3.23	8.9704
3.21797	8.924
3.20603	8.8943
3.19418	8.8476
3.18241	8.7898
3.17074	8.7612
3.15914	8.7241
3.14763	8.6535
3.13621	8.613
3.12487	8.5964
3.11361	8.5454
3.10243	8.5383
3.09133	8.4944
3.0803	8.4516
3.06936	8.4136
3.0585	8.3659
3.04771	8.3608
3.037	8.3291
3.02636	8.3056
3.0158	8.3003
3.00531	8.3103
2.99489	8.2666
2.98454	8.2717
2.97427	8.2363
2.96407	8.207
2.95393	8.1599
2.94387	8.1245
2.93387	8.1167
2.92394	8.104
2.91408	8.0832
2.90429	8.0859
2.89456	8.0722
2.88489	7.9648
2.87529	7.9602
2.86576	7.9424
2.85628	7.9018
2.84687	7.854
2.83752	7.8454
2.82823	7.8149
2.81901	7.7849
2.80984	7.7627
2.80073	7.7583
2.79168	7.6972
2.78269	7.6357
2.77376	7.6391
2.76488	7.5722
2.75606	7.5923
2.7473	7.5556
2.73859	7.5215
2.72994	7.5376
2.72134	7.4848
2.7128	7.4507
2.70431	7.4363
2.69587	7.438
2.68748	7.3701
2.67915	7.4057
2.67087	7.3642
2.66264	7.3327
2.65446	7.2886
2.64633	7.2366
2.63825	7.2353
2.63021	7.1806
2.62223	7.1406
2.6143	7.1396
2.60641	7.1352
2.59857	7.1133
2.59078	7.0947
2.58304	7.0552
2.57534	6.9902
2.56768	6.998
2.56008	7.0005
2.55251	6.9538
2.54499	6.926
2.53752	6.883
2.53009	6.8396
2.5227	6.8096
2.51536	6.7749
2.50806	6.8098
2.5008	6.7439
2.49358	6.7004
2.4864	6.7082
2.47927	6.6946
2.47218	6.6787
2.46512	6.6245
2.45811	6.6323
2.45114	6.5735
2.4442	6.582
2.43731	6.5473
2.43045	6.5473
2.42363	6.5266
2.41685	6.4988
2.41011	6.4648
2.40341	6.4607
2.39674	6.4133
2.39011	6.4062
2.38352	6.4055
2.37696	6.3713
2.37044	6.333
2.36395	6.3457
2.35751	6.3291
2.35109	6.2617
2.34471	6.2451
2.33836	6.2229
2.33205	6.2385
2.32578	6.1994
2.31953	6.168
2.31332	6.1985
2.30714	6.2014
2.301	6.1535
2.29489	6.1347
2.28881	6.0674
2.28276	6.0823
2.27675	6.0576
2.27076	6.0793
2.26481	6.0393
2.25889	6.052
2.253	5.9934
2.24714	5.9514
2.24131	5.914
2.23551	5.9355
2.22974	5.9202
2.224	5.9023
2.21829	5.8672
2.21261	5.8545
2.20696	5.8684
2.20134	5.8506
2.19574	5.8501
2.19018	5.8274
2.18464	5.791
2.17913	5.7844
2.17365	5.7773
2.16819	5.7978
2.16277	5.707
2.15737	5.7639
2.15199	5.6467
2.14665	5.6792
2.14133	5.6255
2.13603	5.6831
2.13077	5.6626
2.12552	5.6006
2.12031	5.6025
2.11512	5.6079
2.10995	5.6128
2.10481	5.5835
2.0997	5.5576
2.09461	5.5976
2.08954	5.5259
2.0845	5.5019
2.07948	5.5713
