Name: Dolomitic Marble
Type: Rocks
Class: Metamorphic
Subclass: Marble
Particle Size: 500-1500Micrometer
Sample No.: marble4.doc
Owner: JHU
Wavelength Range: All
Origin: Sample No. 458, The Hunt and Salisbury Collection at the U.S.
Description: A  fine-grained rock with granulated dolomite and a trace of
Measurement: Directional (10 Degree) Hemispherical Reflectance
X Units: Wavelength (micrometers)
Y Units: Reflectance (percent)
wavelength	value
14.9831	2.164
14.6445	2.4063
14.3209	2.5207
14.0112	2.6796
13.7147	2.9192
13.4304	1.8917
13.1577	2.9848
12.8959	4.5902
12.6443	5.2467
12.4023	5.591
12.1694	5.2976
11.945	4.6044
11.7289	3.5624
11.5203	4.4472
11.3191	10.9563
11.1248	14.261
10.937	3.9558
10.7555	3.7692
10.5799	3.7464
10.4099	3.9851
10.2454	3.9075
10.0859	3.8134
9.9313	4.0659
9.7814	3.9281
9.636	3.6792
9.4948	4.0003
9.3577	3.8511
9.2245	3.7611
9.095	3.4132
8.9691	3.6936
8.8467	3.7365
8.7275	3.6562
8.6116	3.709
8.4986	3.6787
8.3886	3.6489
8.2814	3.8871
8.1769	3.8719
8.075	3.875
7.9756	4.1526
7.8786	4.3129
7.784	4.4727
7.6916	4.6063
7.6014	4.9549
7.5133	5.2329
7.4272	5.596
7.343	6.1297
7.2607	6.7819
7.1803	7.8462
7.1016	9.6803
7.0246	15.2498
6.9493	16.4369
6.8755	17.1481
6.8034	18.5934
6.7327	20.1071
6.6634	22.4662
6.5956	26.481
6.5292	29.6988
6.464	33.14
6.4002	34.3028
6.3376	20.5769
6.2762	6.9304
6.216	2.8986
6.157	1.3828
6.099	0.7725
6.0421	0.6062
5.9863	0.6901
5.9315	0.6953
5.8777	0.7737
5.8249	0.881
5.773	0.9335
5.722	1.0065
5.6719	1.0671
5.6227	1.0761
5.5744	1.1857
5.5268	1.1443
5.4801	1.14
5.4341	1.3356
5.3889	1.8415
5.3445	2.3805
5.3008	2.8877
5.2578	4.0704
5.2154	5.977
5.1738	7.962
5.1328	10.0708
5.0925	10.8921
5.0528	8.0709
5.0137	15.3217
4.9752	16.9378
4.9373	18.0008
4.9	18.7345
4.8632	19.1018
4.827	19.0701
4.7913	18.5566
4.7561	17.8502
4.7215	15.6497
4.6873	10.517
4.6536	4.7676
4.6205	4.118
4.5877	5.1264
4.5555	7.4739
4.5237	9.184
4.4923	13.472
4.4614	11.4957
4.4309	9.3876
4.4008	12.9377
4.3711	17.2885
4.3418	15.6879
4.3129	11.6968
4.2844	10.7964
4.2563	12.533
4.2285	12.6666
4.2011	14.1924
4.174	13.5106
4.1473	11.0837
4.1209	10.7443
4.0949	9.5143
4.0692	7.2707
4.0438	5.0188
4.0187	3.2754
3.994	2.4885
3.9695	2.1448
3.9453	2.0759
3.9214	2.1226
3.8979	2.1733
3.8746	2.2784
3.8515	2.4638
3.8288	2.7213
3.8063	2.3888
3.7841	2.5785
3.7621	3.2782
3.7404	6.6737
3.7189	9.9337
3.6977	12.3537
3.6767	15.101
3.656	16.4253
3.6355	17.1391
3.6152	17.1767
3.5951	16.5949
3.5753	15.3331
3.5557	10.3299
3.5363	9.0689
3.5171	5.6417
3.4981	2.972
3.4793	2.5548
3.4607	2.4347
3.4423	2.3982
3.4241	2.5829
3.4061	2.6213
3.3883	2.824
3.3707	3.0123
3.3533	2.6455
3.336	2.635
3.3189	2.6592
3.302	2.5889
3.2853	5.066
3.2687	7.746
3.2523	9.8492
3.2361	11.679
3.22	13.239
3.204	14.3804
3.1883	15.2007
3.1727	15.744
3.1572	15.4861
3.1419	13.4163
3.1268	12.91
3.1117	12.8172
3.0969	12.416
3.0821	11.5668
3.0675	12.4622
3.0531	13.4684
3.0388	13.5795
3.0246	14.8922
3.0105	15.9659
2.9966	16.3699
2.9828	16.3481
2.9692	16.7405
2.9556	17.0955
2.9422	17.1893
2.9289	17.3233
2.9157	17.656
2.9027	18.138
2.8897	18.5808
2.8769	19.0864
2.8642	19.726
2.8516	20.3375
2.8391	20.9213
2.8267	21.3006
2.8144	21.3719
2.8022	20.1336
2.7902	17.972
2.7782	15.5867
2.7664	13.9162
2.7546	16.5991
2.7429	20.5021
2.7314	24.8311
2.7199	27.4555
2.7085	31.5176
2.6973	31.9588
2.6861	32.3614
2.675	39.935
2.664	44.4799
2.6531	47.3234
2.6423	48.3121
2.6315	49.0521
2.6209	49.9973
2.6103	50.2876
2.5999	50.1723
2.5895	49.5191
2.5792	48.314
2.569	45.6898
2.5588	42.2131
2.5487	36.3418
2.5388	25.9879
2.5289	19.2512
2.519	16.4878
2.5093	16.5799
2.4996	18.1562
2.49	20.1301
2.4805	22.7241
2.471	24.0067
2.4616	24.6345
2.4523	26.4267
2.4431	30.2887
2.4339	34.3163
2.4248	38.1816
2.4157	42.2404
2.4068	43.899
2.3979	45.5728
2.389	46.832
2.3802	47.5825
2.3715	49.6105
2.3629	49.7289
2.3543	47.3466
2.3458	39.6401
2.3373	32.3336
2.3289	27.0804
2.3206	26.027
2.3123	27.1107
2.3041	28.6495
2.2959	30.1909
2.2878	32.1241
2.2798	33.274
2.2718	33.9693
2.2638	35.6822
2.2559	38.7208
2.2481	41.8946
2.2403	44.8378
2.2326	47.2256
2.225	48.8705
2.2173	50.2059
2.2098	51.5891
2.2023	53.0503
2.1948	54.1036
2.1874	55.1468
2.18	55.9141
2.1727	56.0813
2.1655	56.1412
2.1583	55.8125
2.1511	55.2044
2.144	54.5654
2.1369	54.7885
2.1299	55.2266
2.1229	56.1071
2.116	56.7221
2.1091	57.3859
2.1023	57.8918
2.0955	58.1414
2.0887	58.4324
2.082	59.006
2.06	60.1004
2.028	60.6859
1.996	59.5436
1.964	57.0025
1.932	58.426
1.9	60.2332
1.868	60.4925
1.836	59.3284
1.804	61.6991
1.772	62.0935
1.74	62.8358
1.708	62.5353
1.676	63.2044
1.644	63.5236
1.612	63.4534
1.58	63.0264
1.548	63.2512
1.516	63.4229
1.484	62.7946
1.452	62.5646
1.42	62.7948
1.388	62.3232
1.356	62.5345
1.324	62.1571
1.292	62.0128
1.26	61.9674
1.228	62.3483
1.196	62.8421
1.164	62.5725
1.132	62.7287
1.1	62.4896
1.068	62.2495
1.036	62.1226
1.004	62.8468
0.972	63.2865
0.94	63.6258
0.908	64.8333
0.876	65.7324
0.844	66.7526
0.812	67.3492
0.795	67.9795
0.787	68.0017
0.779	68.1632
0.771	68.4405
0.763	68.1837
0.755	68.3321
0.747	68.6737
0.739	68.5842
0.731	68.5397
0.723	68.8517
0.715	69.0915
0.707	69.0567
0.699	69.0811
0.691	69.4099
0.683	69.6382
0.675	69.0717
0.667	69.3066
0.659	69.683
0.651	69.289
0.643	69.2382
0.635	69.3674
0.627	69.6017
0.619	69.0819
0.611	69.3582
0.603	68.3463
0.595	69.2887
0.587	69.4486
0.579	69.0456
0.571	70.0601
0.563	69.7713
0.555	69.802
0.547	69.5285
0.539	69.0907
0.531	69.7248
0.523	68.5988
0.515	69.0308
0.507	68.1329
0.499	67.6605
0.491	67.2346
0.483	67.3052
0.475	67.5593
0.467	66.5762
0.459	66.9692
0.451	66.1105
0.443	65.5145
0.435	65.1207
0.427	64.3235
0.419	63.9717
0.411	62.9035
0.403	61.9146
