Name: Orthoclase KAlSi3O8
Type: Mineral
Class: Silicates
Subclass: Tectosilicates (Framework Silicates); (Feldspar Group)
Particle Size: Fine (Less than 2 Micrometers)
Sample No.: orthocl.3
Owner: JHU
Wavelength Range: IR
Origin: Harris Farm Mica Mine, near Oliver, Goochland Co., Virginia
Description: The hand sample is a single 11.97 g fragment of a single
Measurement: Transmission
X Units: Wavelength (micrometers)
Y Units: Transmittance (percent)
wavelength	value
25.0442	47.2108
24.3388	41.5468
23.6719	33.7636
23.0407	33.6835
22.4422	41.8124
21.8741	55.3631
21.334	63.3729
20.8199	72.1102
20.33	77.6316
19.8627	78.4456
19.4163	76.7308
18.9896	72.2068
18.5812	57.4188
18.19	59.242
17.815	58.2948
17.4551	47.2938
17.1094	40.2538
16.7772	46.0507
16.4576	53.8231
16.15	64.5125
15.8537	66.703
15.568	59.2528
15.2925	70.9827
15.0265	77.8079
14.7697	80.1429
14.5214	79.0125
14.2814	73.2991
14.0492	66.3035
13.8244	61.6739
13.6067	63.3778
13.3957	65.866
13.1912	66.203
12.9929	65.743
12.8004	68.4473
12.6135	73.6746
12.432	82.4363
12.2557	86.333
12.0843	85.0633
11.9176	82.5264
11.7555	79.4363
11.5977	76.0525
11.444	72.3262
11.2944	68.5081
11.1487	64.3724
11.0067	59.7655
10.8682	54.7716
10.7332	49.3339
10.6015	43.4003
10.473	36.7514
10.3476	29.8722
10.2251	23.6181
10.1056	18.6181
9.98873	14.8977
9.87458	13.143
9.763	13.0127
9.65392	12.9511
9.54724	13.4651
9.44291	15.9521
9.34082	20.538
9.24091	23.5449
9.14312	23.8144
9.04739	23.0991
8.95363	22.0937
8.8618	21.4081
8.77183	22.0851
8.68368	25.4252
8.59727	30.9211
8.51257	37.0531
8.42951	42.7035
8.34807	47.6654
8.26819	51.9066
8.18981	55.2586
8.11292	57.9193
8.03745	60.1356
7.96337	62.223
7.89064	63.9574
7.81924	65.3951
7.74911	66.7237
7.68023	67.8944
7.61256	69.0662
7.54608	70.0506
7.48074	70.9918
7.41653	71.7723
7.35341	72.5337
7.29136	73.2786
7.23034	73.888
7.17033	74.9905
7.11132	75.782
7.05327	76.2713
6.99616	76.8284
6.93996	77.4695
6.88467	77.8025
6.83024	78.1634
6.77667	78.5872
6.72393	79.0013
6.67201	79.472
6.62089	79.8997
6.57054	80.326
6.52095	80.5227
6.4721	80.8167
6.42398	81.097
6.37657	81.1673
6.32986	81.2642
6.28382	81.3738
6.23845	81.3597
6.19373	81.073
6.14965	80.7752
6.10619	81.0664
6.06334	81.5203
6.02109	82.6448
5.97942	83.552
5.93832	83.7085
5.89778	83.7029
5.8578	83.7073
5.81835	84.0545
5.77943	84.094
5.74103	84.1702
5.70314	84.222
5.66574	84.2097
5.62883	84.3015
5.5924	84.3938
5.55644	84.6443
5.52093	84.8728
5.48588	85.097
5.45127	85.2693
5.41709	85.5208
5.38334	85.6043
5.35	85.8269
5.31708	85.9837
5.28456	86.1497
5.25243	86.3181
5.2207	86.4622
5.18934	86.6634
5.15836	86.8313
5.12775	87.0232
5.09749	87.1636
5.0676	87.2932
5.03805	87.4358
5.00884	87.5462
4.97998	87.6475
4.95144	87.7215
4.92322	87.7644
4.89533	87.8389
4.86775	87.8721
4.84048	87.9404
4.81351	87.9871
4.78684	88.0525
4.76047	88.1409
4.73439	88.1778
4.70859	88.1985
4.68306	88.252
4.65782	88.2893
4.63284	88.3828
4.60814	88.6033
4.58369	88.5652
4.5595	88.5742
4.53557	88.6514
4.51188	88.6455
4.48845	88.7268
4.46525	88.804
4.44229	88.8631
4.41957	88.9363
4.39708	88.9732
4.37481	88.992
4.35277	89.0466
4.33096	89.1155
4.30935	89.0869
4.28797	89.1526
4.26679	89.2048
4.24583	89.1924
4.22506	89.2805
4.2045	89.2507
4.18414	89.2747
4.16398	89.3428
4.14401	89.3255
4.12423	89.3362
4.10464	89.3743
4.08523	89.3816
4.066	89.3255
4.04696	89.406
4.02809	89.3928
4.0094	89.4558
3.99088	89.406
3.97253	89.3938
3.95435	89.4141
3.93634	89.4939
3.91848	89.5049
3.90079	89.4658
3.88326	89.4573
3.86589	89.4424
3.84867	89.4561
3.8316	89.489
3.81468	89.5401
3.79791	89.4407
3.78129	89.4382
3.76482	89.5
3.74848	89.4229
3.73229	89.4375
3.71624	89.459
3.70032	89.3562
3.68454	89.3347
3.6689	89.3435
3.65338	89.284
3.638	89.3428
3.62275	89.1914
3.60762	89.2171
3.59262	89.2735
3.57775	89.2058
3.56299	89.198
3.54836	89.1404
3.53385	89.1123
3.51945	88.9939
3.50517	88.8936
3.49101	88.8308
3.47696	88.7793
3.46303	88.7498
3.4492	88.655
3.43549	88.615
3.42188	88.4795
3.40838	88.3181
3.39499	88.4314
3.38171	88.5694
3.36852	88.6257
3.35544	88.4646
3.34246	88.5183
3.32958	88.5654
3.3168	88.5381
3.30411	88.5681
3.29153	88.5388
3.27903	88.4827
3.26664	88.3753
3.25433	88.3758
3.24212	88.3982
3.23	88.4221
3.21797	88.3777
3.20603	88.2966
3.19418	88.1565
3.18241	88.0877
3.17074	87.9646
3.15914	87.8269
3.14763	87.7439
3.13621	87.6038
3.12487	87.4143
3.11361	87.2757
3.10243	86.9964
3.09133	86.7322
3.0803	86.5398
3.06936	86.3401
3.0585	86.137
3.04771	86.0623
3.037	85.8572
3.02636	85.6873
3.0158	85.3616
3.00531	85.0198
2.99489	84.5862
2.98454	84.1258
2.97427	83.4065
2.96407	82.7679
2.95393	82.2556
2.94387	81.7742
2.93387	81.3611
2.92394	81.178
2.91408	81.0804
2.90429	81.0994
2.89456	81.2952
2.88489	81.4807
2.87529	81.5647
2.86576	81.9256
2.85628	82.1873
2.84687	82.4646
2.83752	82.9305
2.82823	83.2849
2.81901	83.8011
2.80984	84.2014
2.80073	84.6023
2.79168	84.9436
2.78269	85.3289
2.77376	85.5921
2.76488	86.0525
2.75606	86.5706
2.7473	86.8347
2.73859	87.135
2.72994	87.2302
2.72134	87.1956
2.7128	87.0115
2.70431	87.4124
2.69587	87.555
2.68748	87.7361
2.67915	87.8772
2.67087	88.0589
2.66264	87.825
2.65446	87.698
2.64633	87.7361
2.63825	87.615
2.63021	87.8308
2.62223	87.7244
2.6143	87.6072
2.60641	87.7732
2.59857	87.6463
2.59078	87.6619
2.58304	87.7967
2.57534	87.5935
2.56768	87.5242
2.56008	87.7595
2.55251	87.6228
2.54499	87.5008
2.53752	87.5388
2.53009	87.3992
2.5227	87.4226
2.51536	87.4998
2.50806	87.5056
2.5008	87.4627
2.49358	87.4939
2.4864	87.3992
2.47927	87.242
2.47218	87.3172
2.46512	87.3377
2.45811	87.4509
2.45114	87.4607
2.4442	87.2195
2.43731	87.4304
2.43045	87.0799
2.42363	87.1482
2.41685	87.3279
2.41011	87.4177
2.40341	87.407
2.39674	87.2976
2.39011	87.1726
2.38352	87.0916
2.37696	87.0232
2.37044	87.0388
2.36395	87.0584
2.35751	87.0623
2.35109	86.9295
2.34471	86.99
2.33836	86.8718
2.33205	86.7498
2.32578	86.7537
2.31953	87.0203
2.31332	86.9656
2.30714	86.7576
2.301	86.8123
2.29489	86.8513
2.28881	86.9314
2.28276	86.6345
2.27675	86.6228
2.27076	86.8299
2.26481	86.8552
2.25889	86.6052
2.253	86.5955
2.24714	86.5838
2.24131	86.3552
2.23551	86.4256
2.22974	86.4724
2.224	86.5427
2.21829	86.3982
2.21261	86.697
2.20696	86.6052
2.20134	86.3396
2.19574	86.3142
2.19018	86.3201
2.18464	86.4998
2.17913	86.197
2.17365	86.3845
2.16819	86.4373
2.16277	86.3435
2.15737	86.3045
2.15199	86.1834
2.14665	86.1326
2.14133	86.1189
2.13603	86.1521
2.13077	86.0642
2.12552	86.1111
2.12031	86.1658
2.11512	86.2263
2.10995	86.3552
2.10481	85.8611
2.0997	86.0408
2.09461	86.2888
2.08954	86.3435
2.0845	86.1345
2.07948	86.1736
