Name: Fossiliferous Limestone
Type: Rocks
Class: Sedimentary
Subclass: Limestone
Particle Size: 0 - 75 Micrometers
Sample No.: limestone.1
Owner: JHU
Wavelength Range: All
Origin: Sample No. 355,  from the Hunt and Salisbury Collection at
Description: Sample consists of a homogeneous microcrystalline
Measurement: Directional (10 Degree) Hemispherical Reflectance
X Units: Wavelength (micrometers)
Y Units: Reflectance (percent)
wavelength	value
14.983	19.24
14.645	20.494
14.321	16.695
14.011	1.4391
13.715	15.649
13.43	20.226
13.158	20.629
12.896	17.408
12.644	19.034
12.402	20.89
12.169	26.586
11.945	27.459
11.729	20.058
11.52	8.3016
11.319	5.2346
11.125	21.459
10.937	20.869
10.756	20.636
10.58	19.828
10.41	16.999
10.245	12.148
10.086	8.9576
9.931	7.5772
9.781	6.8331
9.636	6.9527
9.495	7.9127
9.358	9.4023
9.225	10.473
9.095	11.895
8.969	12.562
8.847	13.069
8.727	14.521
8.612	14.28
8.499	16.082
8.389	19.322
8.281	23.319
8.177	24.957
8.075	23.894
7.976	24.416
7.879	22.645
7.784	21.233
7.692	19.041
7.601	14.981
7.513	13.228
7.427	10.884
7.343	7.8665
7.261	4.7787
7.18	3.6259
7.102	4.2447
7.025	4.289
6.949	4.0898
6.875	4.1879
6.803	4.2835
6.733	4.5097
6.663	5.0293
6.596	6.1245
6.529	7.2267
6.464	8.901
6.4	9.4712
6.338	6.7376
6.276	5.2623
6.216	5.1749
6.157	5.0655
6.099	5.6987
6.042	6.8627
5.986	8.7593
5.931	10.456
5.878	12.272
5.825	12.775
5.773	12.671
5.722	13.982
5.672	16.813
5.623	17.226
5.574	2.7281
5.527	15.623
5.48	29.486
5.434	36.737
5.389	41.525
5.345	44.567
5.301	48.102
5.258	51.462
5.215	54.748
5.174	56.634
5.133	57.799
5.093	54.226
5.053	59.434
5.014	59.643
4.975	60.187
4.937	60.799
4.9	61.657
4.863	62.438
4.827	62.822
4.791	62.904
4.756	61.709
4.721	56.68
4.687	46.492
4.654	46.846
4.62	55.321
4.588	58.111
4.556	58.755
4.524	59.006
4.492	59.979
4.461	62.527
4.431	64.609
4.401	65.744
4.371	66.104
4.342	64.854
4.313	64.551
4.284	63.312
4.256	62.959
4.229	63.86
4.201	63.628
4.174	62.469
4.147	60.545
4.121	57.268
4.095	53.345
4.069	47.669
4.044	37.306
4.019	22.435
3.994	10.153
3.97	7.8886
3.945	14.329
3.921	20.593
3.898	22.402
3.875	23.358
3.852	24.398
3.829	29.728
3.806	40.849
3.784	55.308
3.762	59.667
3.74	61.128
3.719	62.309
3.698	62.61
3.677	62.395
3.656	61.752
3.636	60.737
3.615	59.449
3.595	57.084
3.575	51.749
3.556	49.548
3.536	42.228
3.517	27.312
3.498	20.346
3.479	16.125
3.461	23.809
3.442	26.592
3.424	26.682
3.406	26.201
3.388	25.228
3.371	24.32
3.353	20.92
3.336	34.212
3.319	44.008
3.302	46.462
3.285	47.432
3.269	47.811
3.252	47.79
3.236	47.407
3.22	46.899
3.204	46.264
3.188	45.515
3.173	44.558
3.157	43.056
3.142	42.365
3.127	41.921
3.112	40.842
3.097	40.681
3.082	40.795
3.067	40.66
3.053	40.573
3.039	40.532
3.025	40.38
3.011	40.172
2.997	39.941
2.983	39.736
2.969	39.517
2.956	39.336
2.942	39.306
2.929	39.414
2.916	39.699
2.903	40.096
2.89	40.64
2.877	41.245
2.864	41.91
2.852	42.588
2.839	42.929
2.827	42.795
2.814	43.114
2.802	42.961
2.79	41.599
2.778	40.605
2.766	39.919
2.755	41.875
2.743	46.723
2.731	52.938
2.72	61.003
2.708	67.877
2.697	72.737
2.686	76.702
2.675	78.627
2.664	79.98
2.653	80.86
2.642	81.343
2.632	81.508
2.621	81.612
2.61	81.734
2.6	81.635
2.59	81.12
2.579	80.465
2.569	79.414
2.559	76.854
2.549	72.09
2.539	68.072
2.529	68.947
2.519	71.696
2.509	73.001
2.5	73.557
2.49	74.163
2.481	75.346
2.471	77.152
2.462	78.927
2.452	80.171
2.443	81.105
2.434	81.9
2.425	82.511
2.416	83.103
2.407	83.329
2.398	83.43
2.389	83.661
2.38	83.403
2.372	82.668
2.363	81.129
2.354	78.5
2.346	76.384
2.337	75.934
2.329	77.114
2.321	78.473
2.312	79.284
2.304	79.746
2.296	80.308
2.288	80.975
2.28	81.913
2.272	82.863
2.264	83.465
2.256	83.838
2.248	84.213
2.24	84.562
2.233	84.711
2.225	84.87
2.217	84.969
2.21	85.167
2.202	85.412
2.195	85.629
2.187	85.801
2.18	85.831
2.173	85.876
2.166	85.724
2.158	85.779
2.151	85.779
2.144	85.929
2.137	86.126
2.13	86.245
2.123	86.273
2.116	86.31
2.109	86.299
2.102	86.388
2.095	86.456
2.089	86.403
2.082	86.497
2.06	85.901
2.028	85.009
1.996	82.421
1.964	81.578
1.932	79.774
1.9	82
1.868	83.168
1.836	83.966
1.804	83.77
1.772	83.005
1.74	83.039
1.708	83.304
1.676	83.16
1.644	82.34
1.612	82.306
1.58	82.573
1.548	82.183
1.516	81.71
1.484	80.784
1.452	79.968
1.42	79.101
1.388	79.322
1.356	79.352
1.324	79.303
1.292	77.848
1.26	78.03
1.228	78.388
1.196	77.134
1.164	75.655
1.132	75.715
1.1	75.027
1.068	74.567
1.036	73.449
1.004	72.483
0.972	71.839
0.94	71.449
0.908	70.75
0.876	70.539
0.844	71.052
0.812	71.777
0.795	71.396
0.787	71.337
0.779	71.178
0.771	70.534
0.763	70.241
0.755	70.241
0.747	70.077
0.739	69.655
0.731	69.693
0.723	68.783
0.715	69.111
0.707	68.592
0.699	68.483
0.691	67.633
0.683	67.631
0.675	67.531
0.667	67.492
0.659	66.452
0.651	66.811
0.643	65.948
0.635	65.545
0.627	65.234
0.619	65.05
0.611	64.021
0.603	63.689
0.595	63.75
0.587	63.042
0.579	62.032
0.571	61.473
0.563	60.56
0.555	59.074
0.547	57.94
0.539	56.263
0.531	54.5
0.523	53.309
0.515	51.678
0.507	50.201
0.499	48.562
0.491	47.096
0.483	45.618
0.475	44.621
0.467	43.726
0.459	42.73
0.451	42.155
0.443	40.978
0.435	38.656
0.427	37.135
0.419	34.794
0.411	33.746
0.403	32.416
