Name: Beryl Be3Al2Si6O18
Type: Mineral
Class: Silicates
Subclass: Cyclosilicates (Ring Silicates)
Particle Size: Solid polished surface
Sample No.: beryl.2
Owner: JHU
Wavelength Range: IR
Origin: Smithsonian NMNH 134700Sample from Palermo Mine, North
Description: Hand sample was pale green to white in color and
Measurement: Bidirectional reflectance
X Units: Wavelength (micrometers)
Y Units: Reflectance (percent)
wavelength	value
25.0442	18.3691
24.3388	21.4882
23.6719	26.8495
23.0407	32.1347
22.4422	34.0995
21.8741	34.7714
21.334	35.1317
20.8199	24.6821
20.33	24.9731
19.8627	18.0151
19.4163	23.9135
18.9896	32.9433
18.5812	35.0487
18.19	28.2724
17.815	18.1027
17.4551	13.9126
17.1094	14.4282
16.7772	24.1855
16.4576	22.9736
16.15	14.1059
15.8537	14.7336
15.568	15.3823
15.2925	16.6135
15.0265	17.3403
14.7697	22.3173
14.5214	27.8732
14.2814	26.2695
14.0492	22.1201
13.8244	22.8212
13.6067	26.7919
13.3957	27.9931
13.1912	25.6054
12.9929	16.3964
12.8004	10.0766
12.6135	12.7675
12.432	16.1015
12.2557	18.6977
12.0843	18.9863
11.9176	17.7478
11.7555	17.5327
11.5977	18.4799
11.444	19.7587
11.2944	21.402
11.1487	23.4067
11.0067	26.4279
10.8682	30.3363
10.7332	33.2548
10.6015	35.3837
10.473	40.1801
10.3476	45.6305
10.2251	45.4301
10.1056	42.0526
9.98873	34.8363
9.87458	33.6811
9.763	34.8803
9.65392	33.8432
9.54724	30.7851
9.44291	28.9809
9.34082	30.4006
9.24091	31.1029
9.14312	31.0849
9.04739	30.8156
8.95363	30.1237
8.8618	28.9545
8.77183	27.4255
8.68368	25.6384
8.59727	23.9824
8.51257	23.2985
8.42951	22.8942
8.34807	26.9006
8.26819	28.3405
8.18981	26.663
8.11292	25.6933
8.03745	25.8325
7.96337	26.2338
7.89064	27.3747
7.81924	30.3385
7.74911	28.1288
7.68023	22.8535
7.61256	18.1293
7.54608	14.0105
7.48074	10.1286
7.41653	6.3672
7.35341	4.4216
7.29136	4.5896
7.23034	5.0576
7.17033	5.4353
7.11132	5.8313
7.05327	6.0644
6.99616	6.3974
6.93996	6.6999
6.88467	6.8904
6.83024	7.0417
6.77667	7.2153
6.72393	7.3896
6.67201	7.5762
6.62089	7.768
6.57054	7.7563
6.52095	7.9892
6.4721	8.1084
6.42398	8.2331
6.37657	8.4233
6.32986	8.5896
6.28382	8.7209
6.23845	8.7534
6.19373	9.0151
6.14965	9.2512
6.10619	7.9448
6.06334	8.4819
6.02109	8.6889
5.97942	8.855
5.93832	8.6679
5.89778	8.9126
5.8578	9.0481
5.81835	8.9848
5.77943	9.1518
5.74103	9.2263
5.70314	9.3567
5.66574	9.4287
5.62883	9.4314
5.5924	9.5129
5.55644	9.5046
5.52093	9.6032
5.48588	9.6335
5.45127	9.7385
5.41709	9.7173
5.38334	9.7883
5.35	9.6919
5.31708	9.8552
5.28456	9.865
5.25243	9.8708
5.2207	9.853
5.18934	9.8662
5.15836	9.8447
5.12775	9.8491
5.09749	9.8535
5.0676	9.884
5.03805	9.9184
5.00884	9.9538
4.97998	9.9863
4.95144	10.0437
4.92322	10.0732
4.89533	10.122
4.86775	10.1521
4.84048	10.1755
4.81351	10.2114
4.78684	10.2419
4.76047	10.2842
4.73439	10.3257
4.70859	10.3479
4.68306	10.3708
4.65782	10.3852
4.63284	10.4363
4.60814	10.4585
4.58369	10.4905
4.5595	10.5085
4.53557	10.5393
4.51188	10.5681
4.48845	10.5927
4.46525	10.6025
4.44229	10.634
4.41957	10.6584
4.39708	10.6682
4.37481	10.6772
4.35277	10.6484
4.33096	10.5393
4.30935	10.4204
4.28797	10.2571
4.26679	10.2199
4.24583	10.188
4.22506	10.1416
4.2045	10.5766
4.18414	10.7632
4.16398	10.7683
4.14401	10.7749
4.12423	10.7932
4.10464	10.7968
4.08523	10.7932
4.066	10.8015
4.04696	10.8091
4.02809	10.8315
4.0094	10.8369
3.99088	10.8413
3.97253	10.8564
3.95435	10.8633
3.93634	10.8957
3.91848	10.8833
3.90079	10.903
3.88326	10.8996
3.86589	10.9101
3.84867	10.8908
3.8316	10.903
3.81468	10.9048
3.79791	10.906
3.78129	10.9089
3.76482	10.8882
3.74848	10.8977
3.73229	10.8774
3.71624	10.8799
3.70032	10.8803
3.68454	10.8838
3.6689	10.8667
3.65338	10.8513
3.638	10.8603
3.62275	10.8711
3.60762	10.8681
3.59262	10.874
3.57775	10.8628
3.56299	10.8659
3.54836	10.8613
3.53385	10.8669
3.51945	10.8496
3.50517	10.8608
3.49101	10.8528
3.47696	10.8491
3.46303	10.8364
3.4492	10.8408
3.43549	10.8403
3.42188	10.8554
3.40838	10.8315
3.39499	10.8134
3.38171	10.8076
3.36852	10.8039
3.35544	10.7817
3.34246	10.7671
3.32958	10.768
3.3168	10.7617
3.30411	10.7627
3.29153	10.748
3.27903	10.749
3.26664	10.7148
3.25433	10.7207
3.24212	10.6772
3.23	10.6865
3.21797	10.6675
3.20603	10.6767
3.19418	10.6762
3.18241	10.6362
3.17074	10.6228
3.15914	10.625
3.14763	10.6103
3.13621	10.5945
3.12487	10.5932
3.11361	10.5752
3.10243	10.4953
3.09133	10.4392
3.0803	10.4751
3.06936	10.5039
3.0585	10.5283
3.04771	10.4878
3.037	10.4966
3.02636	10.5129
3.0158	10.4863
3.00531	10.4775
2.99489	10.4514
2.98454	10.4463
2.97427	10.4087
2.96407	10.384
2.95393	10.3791
2.94387	10.3408
2.93387	10.333
2.92394	10.2981
2.91408	10.2641
2.90429	10.2842
2.89456	10.23
2.88489	10.185
2.87529	10.1438
2.86576	10.135
2.85628	10.0976
2.84687	10.0566
2.83752	10.0246
2.82823	10.0403
2.81901	9.9729
2.80984	9.9448
2.80073	9.9377
2.79168	9.842
2.78269	9.7959
2.77376	9.456
2.76488	9.6758
2.75606	9.7002
2.7473	9.7231
2.73859	9.6474
2.72994	9.6709
2.72134	9.6782
2.7128	9.6799
2.70431	9.5549
2.69587	9.248
2.68748	9.4326
2.67915	9.4863
2.67087	9.5576
2.66264	9.6509
2.65446	9.6479
2.64633	9.6704
2.63825	9.6789
2.63021	9.7109
2.62223	9.7109
2.6143	9.6899
2.60641	9.7051
2.59857	9.688
2.59078	9.6782
2.58304	9.6816
2.57534	9.6665
2.56768	9.6474
2.56008	9.665
2.55251	9.6943
2.54499	9.7378
2.53752	9.7309
2.53009	9.6972
2.5227	9.6924
2.51536	9.6972
2.50806	9.7099
2.5008	9.7334
2.49358	9.7387
2.4864	9.7529
2.47927	9.7422
2.47218	9.7651
2.46512	9.7715
2.45811	9.7602
2.45114	9.7812
2.4442	9.7929
2.43731	9.7773
2.43045	9.7705
2.42363	9.7636
2.41685	9.7446
2.41011	9.747
2.40341	9.7685
2.39674	9.7466
2.39011	9.7207
2.38352	9.7368
2.37696	9.7231
2.37044	9.7031
2.36395	9.7392
2.35751	9.7314
2.35109	9.6777
2.34471	9.6894
2.33836	9.7129
2.33205	9.6738
2.32578	9.6953
2.31953	9.688
2.31332	9.6728
2.30714	9.6997
2.301	9.645
2.29489	9.7407
2.28881	9.7304
2.28276	9.6899
2.27675	9.6469
2.27076	9.688
2.26481	9.6953
2.25889	9.7114
2.253	9.7251
2.24714	9.6719
2.24131	9.7031
2.23551	9.6767
2.22974	9.6875
2.224	9.6406
2.21829	9.666
2.21261	9.6899
2.20696	9.7075
2.20134	9.6855
2.19574	9.6645
2.19018	9.6777
2.18464	9.7051
2.17913	9.7861
2.17365	9.6826
2.16819	9.6523
2.16277	9.7187
2.15737	9.7304
2.15199	9.6992
2.14665	9.709
2.14133	9.7265
2.13603	9.7138
2.13077	9.7578
2.12552	9.7256
2.12031	9.7597
2.11512	9.7158
2.10995	9.7783
2.10481	9.7304
2.0997	9.7783
2.09461	9.7265
2.08954	9.7168
2.0845	9.8213
2.07948	9.7519
