Name: Picrite
Type: Rocks
Class: Igneous
Subclass: Ultramafic
Particle Size: Solid
Sample No.: Picrite.H1
Owner: JHU
Origin: from Kilauea, via Rosalind Helz, USGS, Reston, VA (Cat. No. KI
Description: A dark gray porphyritic rock. Green olivine phenocrysts 1-8
Measurement: Directional (10 degree) hemispherical reflectance
X Units: Wavelength (micrometers)
Y Units: Reflectance (percent)
wavelength	value
14.0112	1.4532
13.7147	4.9135
13.4304	5.2374
13.1577	6.0509
12.8959	6.4884
12.6443	7.5478
12.4023	8.5462
12.1694	10.4571
11.945	12.8052
11.7289	13.9012
11.5203	19.4592
11.3191	26.0092
11.1248	29.009
10.937	31.2685
10.7555	33.0259
10.5799	31.7381
10.4099	21.7464
10.2454	22.8735
10.0859	16.2667
9.9313	15.8308
9.7814	17.9561
9.636	18.675
9.4948	18.1122
9.3577	15.8353
9.2245	11.7989
9.095	10.3835
8.9691	9.0051
8.8467	6.502
8.7275	4.5774
8.6116	3.7332
8.4986	3.3176
8.3886	2.809
8.2814	2.1473
8.1769	1.736
8.075	1.6099
7.9756	1.7548
7.8786	1.8452
7.784	1.9997
7.6916	2.1275
7.6014	2.2512
7.5133	2.3925
7.4272	2.5228
7.343	2.651
7.2607	2.7626
7.1803	2.881
7.1016	3.0799
7.0246	3.1936
6.9493	3.2956
6.8755	3.4117
6.8034	3.4784
6.7327	3.6551
6.6634	3.7933
6.5956	3.8803
6.5292	3.9551
6.464	3.9782
6.4002	3.9732
6.3376	3.9766
6.2762	4.0668
6.216	4.0657
6.157	4.0982
6.099	4.11
6.0421	4.1175
5.9863	4.11
5.9315	4.2115
5.8777	4.3259
5.8249	4.4055
5.773	4.4847
5.722	4.5176
5.6719	4.5935
5.6227	4.6467
5.5744	4.6884
5.5268	4.782
5.4801	4.8396
5.4341	4.8979
5.3889	4.9737
5.3445	5.0559
5.3008	5.1223
5.2578	5.1878
5.2154	5.246
5.1738	5.3198
5.1328	5.4286
5.0925	5.5041
5.0528	5.6177
5.0137	5.7232
4.9752	5.8184
4.9373	5.9311
4.9	6.1277
4.8632	6.3605
4.827	6.5327
4.7913	6.7083
4.7561	6.8652
4.7215	7.0205
4.6873	7.1836
4.6536	7.387
4.6205	7.5855
4.5877	7.7948
4.5555	8.0051
4.5237	8.1893
4.4923	8.3704
4.4614	8.4949
4.4309	8.6995
4.4008	8.821
4.3711	8.9364
4.3418	9.102
4.3129	9.2111
4.2844	9.3635
4.2563	9.4847
4.2285	9.6398
4.2011	9.754
4.174	9.9152
4.1473	9.9982
4.1209	10.1156
4.0949	10.2044
4.0692	10.3116
4.0438	10.3537
4.0187	10.3784
3.994	10.448
3.9695	10.5417
3.9453	10.6992
3.9214	10.7913
3.8979	10.8488
3.8746	10.9254
3.8515	11.001
3.8288	11.1002
3.8063	11.1516
3.7841	11.2296
3.7621	11.272
3.7404	11.3179
3.7189	11.3573
3.6977	11.4135
3.6767	11.4729
3.656	11.5314
3.6355	11.5809
3.6152	11.6288
3.5951	11.6693
3.5753	11.6789
3.5557	11.6573
3.5363	11.5739
3.5171	11.2835
3.4981	11.0864
3.4793	11.2563
3.4607	11.3644
3.4423	11.1701
3.4241	10.4608
3.4061	10.9945
3.3883	11.3264
3.3707	11.5548
3.3533	11.8483
3.336	12.0227
3.3189	12.0925
3.302	12.1406
3.2853	12.1532
3.2687	12.1179
3.2523	12.0576
3.2361	12.0709
3.22	12.007
3.204	11.9374
3.1883	11.8784
3.1727	11.812
3.1572	11.7574
3.1419	11.7098
3.1268	11.6416
3.1117	11.6257
3.0969	11.5251
3.0821	11.4454
3.0675	11.4204
3.0531	11.3435
3.0388	11.3327
3.0246	11.2399
3.0105	11.2495
2.9966	11.2776
2.9828	11.2247
2.9692	11.2888
2.9556	11.2621
2.9422	11.2446
2.9289	11.328
2.9157	11.3974
2.9027	11.4921
2.8897	11.4623
2.8769	11.5382
2.8642	11.6249
2.8516	11.6974
2.8391	11.8207
2.8267	11.9604
2.8144	12.1129
2.8022	12.2901
2.7902	12.5395
2.7782	12.8189
2.7664	13.1135
2.7546	13.4859
2.7429	13.8764
2.7314	14.1088
2.7199	13.1114
2.7085	14.9163
2.6973	15.1256
2.6861	15.2364
2.675	15.3839
2.664	15.3548
2.6531	15.321
2.6423	15.2693
2.6315	15.3037
2.6209	15.2376
2.6103	15.2081
2.5999	15.1275
2.5895	15.0963
2.5792	15.1092
2.569	15.0013
2.5588	15.0119
2.5487	14.8888
2.5388	14.8087
2.5289	14.8308
2.519	14.7914
2.5093	14.7571
2.4996	14.6958
2.49	14.6751
2.4805	14.6005
2.471	14.5143
2.4616	14.4857
2.4523	14.4108
2.4431	14.4168
2.4339	14.2842
2.4248	14.3106
2.4157	14.3156
2.4068	14.2828
2.3979	14.2402
2.389	14.1961
2.3802	14.1862
2.3715	14.1088
2.3629	14.1356
2.3543	14.0873
2.3458	14.1117
2.3373	14.0719
2.3289	14.0602
2.3206	13.994
2.3123	14.0114
2.3041	14.0292
2.2959	14.0704
2.2878	13.9745
2.2798	13.9704
2.2718	14.0547
2.2638	14.036
2.2559	14.0693
2.2481	13.968
2.2403	13.9884
2.2326	14.0259
2.225	13.9779
2.2173	13.9865
2.2098	13.986
2.2023	14.0646
2.1948	14.0421
2.1874	14.017
2.18	14.0423
2.1727	14.0459
2.1655	14.0631
2.1583	14.0779
2.1511	14.0774
2.144	13.9903
2.1369	14.0397
2.1299	14.0852
2.1229	14.0392
2.116	14.0892
2.1091	14.0262
2.1023	14.1384
2.0955	14.0927
2.0887	14.0758
2.082	14.0761
2.06	14.07
2.028	13.8563
1.996	14.1476
1.964	13.9215
1.932	14.2061
1.9	13.7442
1.868	13.9259
1.836	13.68
1.804	13.8835
1.772	13.8742
1.74	13.7146
1.708	13.5732
1.676	13.0747
1.644	12.5102
1.612	11.9804
1.58	11.3303
1.548	10.5821
1.516	9.7335
1.484	8.8417
1.452	7.9757
1.42	7.4047
1.388	6.7538
1.356	6.3974
1.324	5.9202
1.292	5.6154
1.26	5.34
1.228	5.1186
1.196	5.0501
1.164	4.7771
1.132	4.6565
1.1	4.3665
1.068	3.9304
1.036	4.0344
1.004	4.3764
0.972	4.7148
0.94	5.0164
0.908	5.5786
0.876	6.0472
0.844	6.795
0.812	7.3433
0.795	7.6977
0.787	7.824
0.779	7.8702
0.771	8.0972
0.763	8.3385
0.755	8.4778
0.747	8.8263
0.739	8.9279
0.731	9.0766
0.723	9.4539
0.715	9.5686
0.707	9.7651
0.699	9.5624
0.691	9.7922
0.683	9.9967
0.675	10.2291
0.667	10.1532
0.659	9.8073
0.651	9.9435
0.643	9.6866
0.635	9.6468
0.627	9.618
0.619	9.6452
0.611	9.6611
0.603	9.672
0.595	9.6946
0.587	9.6223
0.579	9.4
0.571	9.5599
0.563	9.2296
0.555	8.9642
0.547	8.7454
0.539	8.773
0.531	8.4011
0.523	7.9109
0.515	7.618
0.507	7.4825
0.499	7.1769
0.491	6.8794
0.483	6.5054
0.475	6.3988
0.467	5.753
0.459	5.7606
0.451	5.5476
0.443	5.5768
0.435	5.2555
0.427	4.7498
0.419	4.8098
0.411	4.7712
0.403	4.1353
