Name: Olivine (Fo29) (Fe+2,Mg)2SiO4
Type: Mineral
Class: Silicates
Subclass: Nesosilicates (Isolated tetrahedra); (Olivine Group)
Particle Size: 0-60 micrometers.  (Packed powder simulates coarse.)
Sample No.: olivine.3
Owner: JHU
Wavelength Range: IR
Origin: Kiglapait Intrusion, Labrador via Trude King #KI3291
Description: Initially, the specimen was contaminated with pyroxene,
Measurement: Bidirectional reflectance
X Units: Wavelength (micrometers)
Y Units: Reflectance (percent)
wavelength	value
25.0442	6.9648
24.3388	6.0403
23.6719	5.73
23.0407	5.3984
22.4422	5.5693
21.8741	5.895
21.334	6.8738
20.8199	7.8979
20.33	7.9497
19.8627	8.7114
19.4163	9.6919
18.9896	10.2966
18.5812	9.4594
18.19	6.8506
17.815	5.0312
17.4551	5.0996
17.1094	5.5388
16.7772	5.79
16.4576	5.4717
16.15	4.2419
15.8537	3.323
15.568	3.3088
15.2925	3.6111
15.0265	3.9304
14.7697	4.1943
14.5214	4.3916
14.2814	4.5742
14.0492	4.7361
13.8244	4.8166
13.6067	4.9109
13.3957	4.9629
13.1912	5.0266
12.9929	5.061
12.8004	5.1216
12.6135	5.1484
12.432	5.2539
12.2557	5.3752
12.0843	5.741
11.9176	5.2024
11.7555	6.0244
11.5977	7.1201
11.444	8.2917
11.2944	9.1716
11.1487	9.9626
11.0067	10.7326
10.8682	11.2744
10.7332	9.3923
10.6015	7.7964
10.473	10.1555
10.3476	9.9153
10.2251	8.6299
10.1056	7.6953
9.98873	7.0381
9.87458	6.7336
9.763	6.6616
9.65392	6.2529
9.54724	4.9221
9.44291	3.4089
9.34082	2.4558
9.24091	2.2842
9.14312	2.4495
9.04739	2.6872
8.95363	2.9238
8.8618	3.1616
8.77183	3.3406
8.68368	3.5205
8.59727	3.6426
8.51257	3.8232
8.42951	3.9621
8.34807	4.1138
8.26819	4.2986
8.18981	4.4744
8.11292	4.5625
8.03745	4.5913
7.96337	4.633
7.89064	4.657
7.81924	4.6555
7.74911	4.6423
7.68023	4.6921
7.61256	4.7668
7.54608	4.8472
7.48074	4.9055
7.41653	4.9541
7.35341	4.9873
7.29136	5.0161
7.23034	5.0156
7.17033	5.0444
7.11132	5.0676
7.05327	5.0967
6.99616	5.1047
6.93996	5.1301
6.88467	5.1404
6.83024	5.1435
6.77667	5.1492
6.72393	5.1362
6.67201	5.1286
6.62089	5.1321
6.57054	5.124
6.52095	5.0998
6.4721	5.1023
6.42398	5.0762
6.37657	5.0361
6.32986	4.9939
6.28382	4.9463
6.23845	4.9011
6.19373	4.8423
6.14965	4.7151
6.10619	4.5679
6.06334	4.4602
6.02109	4.4763
5.97942	4.5024
5.93832	4.5066
5.89778	4.5173
5.8578	4.5369
5.81835	4.521
5.77943	4.4165
5.74103	4.2878
5.70314	4.2532
5.66574	4.2883
5.62883	4.3464
5.5924	4.3696
5.55644	4.4026
5.52093	4.4397
5.48588	4.4809
5.45127	4.5342
5.41709	4.5713
5.38334	4.5867
5.35	4.6145
5.31708	4.654
5.28456	4.7073
5.25243	4.7441
5.2207	4.7834
5.18934	4.8118
5.15836	4.8259
5.12775	4.8454
5.09749	4.885
5.0676	4.9304
5.03805	4.9966
5.00884	5.0571
4.97998	5.1157
4.95144	5.157
4.92322	5.1904
4.89533	5.2305
4.86775	5.2666
4.84048	5.2976
4.81351	5.3213
4.78684	5.3606
4.76047	5.3933
4.73439	5.4177
4.70859	5.446
4.68306	5.4773
4.65782	5.5093
4.63284	5.5449
4.60814	5.5796
4.58369	5.616
4.5595	5.6479
4.53557	5.6755
4.51188	5.7165
4.48845	5.7595
4.46525	5.7864
4.44229	5.8342
4.41957	5.8747
4.39708	5.9209
4.37481	5.9636
4.35277	6.0105
4.33096	6.0495
4.30935	6.0825
4.28797	6.1282
4.26679	6.1665
4.24583	6.2168
4.22506	6.2634
4.2045	6.3059
4.18414	6.3374
4.16398	6.3786
4.14401	6.425
4.12423	6.4685
4.10464	6.5034
4.08523	6.5444
4.066	6.5891
4.04696	6.6321
4.02809	6.677
4.0094	6.7173
3.99088	6.7527
3.97253	6.7961
3.95435	6.8474
3.93634	6.8984
3.91848	6.9426
3.90079	6.9824
3.88326	7.02
3.86589	7.0505
3.84867	7.0981
3.8316	7.1411
3.81468	7.1704
3.79791	7.2053
3.78129	7.2544
3.76482	7.2912
3.74848	7.3362
3.73229	7.3618
3.71624	7.394
3.70032	7.438
3.68454	7.4648
3.6689	7.5019
3.65338	7.5344
3.638	7.5666
3.62275	7.6013
3.60762	7.6274
3.59262	7.6548
3.57775	7.6782
3.56299	7.6904
3.54836	7.7109
3.53385	7.7248
3.51945	7.7041
3.50517	7.6003
3.49101	7.6621
3.47696	7.7012
3.46303	7.7224
3.4492	7.7012
3.43549	7.6523
3.42188	7.5271
3.40838	7.573
3.39499	7.7124
3.38171	7.7104
3.36852	7.772
3.35544	7.8428
3.34246	7.8852
3.32958	7.8921
3.3168	7.8862
3.30411	7.8962
3.29153	7.8955
3.27903	7.8816
3.26664	7.8779
3.25433	7.8579
3.24212	7.8562
3.23	7.8191
3.21797	7.8091
3.20603	7.7715
3.19418	7.7561
3.18241	7.7156
3.17074	7.697
3.15914	7.6738
3.14763	7.6484
3.13621	7.6223
3.12487	7.602
3.11361	7.5959
3.10243	7.5783
3.09133	7.5681
3.0803	7.5603
3.06936	7.5425
3.0585	7.5449
3.04771	7.5303
3.037	7.5122
3.02636	7.499
3.0158	7.4814
3.00531	7.4626
2.99489	7.4568
2.98454	7.4487
2.97427	7.435
2.96407	7.414
2.95393	7.3979
2.94387	7.4136
2.93387	7.4131
2.92394	7.4106
2.91408	7.4055
2.90429	7.3972
2.89456	7.3869
2.88489	7.3684
2.87529	7.3525
2.86576	7.3379
2.85628	7.3425
2.84687	7.3259
2.83752	7.3296
2.82823	7.3147
2.81901	7.3083
2.80984	7.2734
2.80073	7.2485
2.79168	7.2422
2.78269	7.2898
2.77376	7.3166
2.76488	7.3684
2.75606	7.448
2.7473	7.532
2.73859	7.6997
2.72994	7.875
2.72134	8.2077
2.7128	8.5469
2.70431	8.8249
2.69587	9.0134
2.68748	9.1101
2.67915	9.1946
2.67087	9.2832
2.66264	9.2693
2.65446	9.2812
2.64633	9.2571
2.63825	9.2893
2.63021	9.3127
2.62223	9.2788
2.6143	9.2624
2.60641	9.2688
2.59857	9.2607
2.59078	9.2649
2.58304	9.2649
2.57534	9.216
2.56768	9.2246
2.56008	9.2309
2.55251	9.2185
2.54499	9.2129
2.53752	9.2099
2.53009	9.1816
2.5227	9.1841
2.51536	9.1474
2.50806	9.1733
2.5008	9.1887
2.49358	9.1719
2.4864	9.1596
2.47927	9.1469
2.47218	9.1428
2.46512	9.1516
2.45811	9.1365
2.45114	9.1477
2.4442	9.1015
2.43731	9.1089
2.43045	9.0981
2.42363	9.1147
2.41685	9.1074
2.41011	9.1037
2.40341	9.0898
2.39674	9.0752
2.39011	9.0527
2.38352	9.0488
2.37696	9.0566
2.37044	9.0534
2.36395	9.0478
2.35751	9.0351
2.35109	9.0312
2.34471	9.0132
2.33836	9.0268
2.33205	9.001
2.32578	8.9743
2.31953	9.0229
2.31332	9.0063
2.30714	9.0166
2.301	9.0019
2.29489	9.0263
2.28881	9.0254
2.28276	9.0166
2.27675	9.0102
2.27076	9.0366
2.26481	9.0132
2.25889	9.0322
2.253	9.061
2.24714	9.063
2.24131	9.0349
2.23551	9.0588
2.22974	9.029
2.224	9.0537
2.21829	9.0537
2.21261	9.0407
2.20696	9.0637
2.20134	9.0266
2.19574	9.0368
2.19018	9.0898
2.18464	9.0664
2.17913	9.0864
2.17365	9.06
2.16819	9.0747
2.16277	9.0925
2.15737	9.0696
2.15199	9.0481
2.14665	9.0776
2.14133	9.0786
2.13603	9.1025
2.13077	9.0715
2.12552	9.1242
2.12031	9.1445
2.11512	9.0971
2.10995	9.091
2.10481	9.145
2.0997	9.1675
2.09461	9.1797
2.08954	9.1504
2.0845	9.1777
2.07948	9.1587
