Name: Beryl Be3Al2Si6O18
Type: Mineral
Class: Silicates
Subclass: Cyclosilicates (Ring Silicates)
Particle Size: Solid polished surface
Sample No.: beryl.1
Owner: JHU
Wavelength Range: IR
Origin: Sample from Maine via Hunt and Salisbury Collection sample
Description: The hand sample was cut and polished along an
Measurement: Bidirectional reflectance
X Units: Wavelength (micrometers)
Y Units: Reflectance (percent)
wavelength	value
25.0442	24.9804
24.3388	28.2656
23.6719	38.5077
23.0407	57.7967
22.4422	62.91
21.8741	65.9422
21.334	65.4071
20.8199	45.7929
20.33	44.3436
19.8627	33.4355
19.4163	37.3207
18.9896	40.3671
18.5812	44.5438
18.19	40.7875
17.815	28.4887
17.4551	19.3115
17.1094	26.1445
16.7772	35.4945
16.4576	30.6879
16.15	14.2627
15.8537	18.8344
15.568	22.1162
15.2925	24.5605
15.0265	26.2802
14.7697	32.454
14.5214	36.331
14.2814	32.5424
14.0492	21.0209
13.8244	21.4765
13.6067	27.2619
13.3957	33.3949
13.1912	35.6073
12.9929	29.8664
12.8004	26.6301
12.6135	28.1562
12.432	30.632
12.2557	30.4364
12.0843	26.6496
11.9176	20.9199
11.7555	19.5615
11.5977	21.1486
11.444	23.0637
11.2944	25.0873
11.1487	27.4748
11.0067	30.8446
10.8682	35.9193
10.7332	42.3983
10.6015	49.9764
10.473	58.0948
10.3476	62.6781
10.2251	63.3077
10.1056	59.1515
9.98873	46.9445
9.87458	46.7958
9.763	50.8534
9.65392	45.5844
9.54724	37.5373
9.44291	35.0331
9.34082	36.5883
9.24091	38.1977
9.14312	38.9154
9.04739	38.9306
8.95363	38.1603
8.8618	37.2641
8.77183	36.663
8.68368	35.932
8.59727	36.6964
8.51257	39.1764
8.42951	42.0216
8.34807	47.0443
8.26819	50.6688
8.18981	52.9588
8.11292	54.1654
8.03745	54.85
7.96337	55.9139
7.89064	57.7953
7.81924	62.3914
7.74911	69.0555
7.68023	65.6756
7.61256	56.0648
7.54608	42.9745
7.48074	29.4111
7.41653	16.9321
7.35341	7.6018
7.29136	4.1167
7.23034	4.8662
7.17033	6.1499
7.11132	7.2334
7.05327	8.228
6.99616	8.978
6.93996	9.6689
6.88467	10.2563
6.83024	10.8086
6.77667	11.3237
6.72393	11.7158
6.67201	12.1953
6.62089	12.5791
6.57054	13.101
6.52095	13.3632
6.4721	13.5727
6.42398	13.749
6.37657	13.8964
6.32986	14.0942
6.28382	14.3432
6.23845	14.3906
6.19373	14.6845
6.14965	14.8686
6.10619	14.9936
6.06334	15.0796
6.02109	15.0942
5.97942	15.2568
5.93832	15.6533
5.89778	15.727
5.8578	15.6572
5.81835	15.9311
5.77943	15.7871
5.74103	15.9072
5.70314	16.0136
5.66574	16.0415
5.62883	16.1367
5.5924	16.1923
5.55644	16.3349
5.52093	16.4057
5.48588	16.4663
5.45127	16.5336
5.41709	16.685
5.38334	16.6679
5.35	16.8134
5.31708	16.811
5.28456	16.8872
5.25243	16.9223
5.2207	16.9682
5.18934	17.0017
5.15836	17.0429
5.12775	17.0439
5.09749	17.0595
5.0676	17.0673
5.03805	17.0915
5.00884	17.0932
4.97998	17.1264
4.95144	17.1372
4.92322	17.1604
4.89533	17.1782
4.86775	17.1877
4.84048	17.2495
4.81351	17.2475
4.78684	17.2998
4.76047	17.3266
4.73439	17.373
4.70859	17.4067
4.68306	17.4233
4.65782	17.4697
4.63284	17.5214
4.60814	17.5698
4.58369	17.6189
4.5595	17.6508
4.53557	17.6731
4.51188	17.7192
4.48845	17.7597
4.46525	17.7619
4.44229	17.7707
4.41957	17.7959
4.39708	17.8342
4.37481	17.8342
4.35277	17.8403
4.33096	17.842
4.30935	17.8569
4.28797	17.8598
4.26679	17.8501
4.24583	17.8654
4.22506	17.7822
4.2045	17.8068
4.18414	17.8442
4.16398	17.9008
4.14401	17.936
4.12423	17.937
4.10464	17.9643
4.08523	17.9875
4.066	17.9668
4.04696	17.9992
4.02809	18.0236
4.0094	18.0312
3.99088	18.0656
3.97253	18.093
3.95435	18.1054
3.93634	18.1167
3.91848	18.1359
3.90079	18.1469
3.88326	18.1506
3.86589	18.1386
3.84867	18.1398
3.8316	18.1464
3.81468	18.1301
3.79791	18.1464
3.78129	18.1425
3.76482	18.1406
3.74848	18.1538
3.73229	18.1328
3.71624	18.1369
3.70032	18.1225
3.68454	18.121
3.6689	18.1137
3.65338	18.1379
3.638	18.1401
3.62275	18.1318
3.60762	18.1154
3.59262	18.1303
3.57775	18.1533
3.56299	18.1594
3.54836	18.1767
3.53385	18.1562
3.51945	18.1557
3.50517	18.1865
3.49101	18.1887
3.47696	18.1923
3.46303	18.1826
3.4492	18.165
3.43549	18.1826
3.42188	18.217
3.40838	18.1789
3.39499	18.164
3.38171	18.1308
3.36852	18.1721
3.35544	18.1601
3.34246	18.1086
3.32958	18.1184
3.3168	18.0878
3.30411	18.0771
3.29153	18.1127
3.27903	18.124
3.26664	18.0893
3.25433	18.0434
3.24212	18.0815
3.23	18.0576
3.21797	18.0439
3.20603	18.0317
3.19418	18.0224
3.18241	18.041
3.17074	18.0336
3.15914	18.0415
3.14763	18.059
3.13621	18.0219
3.12487	18.04
3.11361	18.0126
3.10243	18.0141
3.09133	18.0141
3.0803	18.0644
3.06936	18.0097
3.0585	18.0371
3.04771	18.0546
3.037	18.0605
3.02636	18.0395
3.0158	18.0551
3.00531	18.0297
2.99489	18.0356
2.98454	18.0317
2.97427	18.0488
2.96407	18.0419
2.95393	18.0156
2.94387	17.9863
2.93387	17.9985
2.92394	18.0493
2.91408	18.0336
2.90429	18.0078
2.89456	18.0278
2.88489	18.0293
2.87529	18.0371
2.86576	18.0175
2.85628	18.0551
2.84687	18.0747
2.83752	18.0771
2.82823	18.0649
2.81901	18.1503
2.80984	18.0903
2.80073	18.1093
2.79168	18.0688
2.78269	18.0903
2.77376	18.0293
2.76488	18.1074
2.75606	18.2954
2.7473	18.0976
2.73859	18.3364
2.72994	18.0551
2.72134	18.1875
2.7128	18.0781
2.70431	18.0361
2.69587	17.9946
2.68748	18.0371
2.67915	18.2363
2.67087	18.4941
2.66264	18.1801
2.65446	18.164
2.64633	18.1054
2.63825	18.1376
2.63021	18.4248
2.62223	18.1611
2.6143	18.2011
2.60641	18.3447
2.59857	18.2216
2.59078	18.2626
2.58304	18.4619
2.57534	18.2812
2.56768	18.2783
2.56008	18.3505
2.55251	18.3144
2.54499	18.3115
2.53752	18.3164
2.53009	18.3603
2.5227	18.416
2.51536	18.4296
2.50806	18.416
2.5008	18.4755
2.49358	18.5009
2.4864	18.5078
2.47927	18.5605
2.47218	18.5468
2.46512	18.6103
2.45811	18.6132
2.45114	18.6718
2.4442	18.6884
2.43731	18.746
2.43045	18.708
2.42363	18.6835
2.41685	18.708
2.41011	18.8027
2.40341	18.7822
2.39674	18.7978
2.39011	18.789
2.38352	18.7832
2.37696	18.832
2.37044	18.7861
2.36395	18.8251
2.35751	18.8759
2.35109	18.8681
2.34471	18.8515
2.33836	18.8828
2.33205	18.871
2.32578	18.915
2.31953	18.9238
2.31332	18.9804
2.30714	18.9931
2.301	18.9726
2.29489	19.0156
2.28881	19.0078
2.28276	19.0556
2.27675	19.0546
2.27076	19.1181
2.26481	19.1181
2.25889	19.1445
2.253	19.1054
2.24714	19.0859
2.24131	19.0449
2.23551	19.1699
2.22974	19.0546
2.224	19.0371
2.21829	19.0937
2.21261	19.0839
2.20696	19.1191
2.20134	19.0312
2.19574	19.1074
2.19018	19.0742
2.18464	19.1835
2.17913	19.1367
2.17365	19.1445
2.16819	19.1347
2.16277	19.1503
2.15737	19.1425
2.15199	19.1269
2.14665	19.0566
2.14133	19.1503
2.13603	19.2304
2.13077	19.1992
2.12552	19.1191
2.12031	19.2773
2.11512	19.2773
2.10995	19.082
2.10481	19.291
2.0997	19.1562
2.09461	19.2578
2.08954	19.166
2.0845	19.2363
2.07948	19.2597
