Name: Grossular Ca3Al2(Si04)3
Type: Mineral
Class: Silicates
Subclass: Nesosilicates (Isolated Tetrahedra); Garnet Group
Particle Size: Fine  (0 - 74 micrometers)
Sample No.: grossul.2
Owner: JHU
Wavelength Range: IR
Origin: Sample from Pear Gillis Farm, Beach Glen, Buncombe Co.,
Description: The sample was a spherical cluster of small crystals
Measurement: Bidirectional reflectance
X Units: Wavelength (micrometers)
Y Units: Reflectance (percent)
wavelength	value
25.0442	1.72
24.3388	1.9
23.6719	2.71
23.0407	3.39
22.4422	3.48
21.8741	3.3
21.334	3.37
20.8199	3.59
20.33	3.38
19.8627	3.25
19.4163	2.47
18.9896	1.14
18.5812	2.16
18.19	2.93
17.815	2.78
17.4551	1.91
17.1094	0.65
16.7772	0.49
16.4576	0.72
16.15	0.69
15.8537	0.54
15.568	1.2
15.2925	1.83
15.0265	2.12
14.7697	2.43
14.5214	2.59
14.2814	2.73
14.0492	2.83
13.8244	2.78
13.6067	2.7
13.3957	2.35
13.1912	1.86
12.9929	1.88
12.8004	1.88
12.6135	1.8
12.432	1.7
12.2557	1.82
12.0843	2.25
11.9176	2.55
11.7555	2.35
11.5977	2.81
11.444	2.22
11.2944	1.1
11.1487	1.37
11.0067	2.61
10.8682	3.38
10.7332	3.71
10.6015	3.92
10.473	4.08
10.3476	4.07
10.2251	4.25
10.1056	4.78
9.98873	4.85
9.87458	4.63
9.763	3.92
9.65392	2.83
9.54724	1.75
9.44291	0.76
9.34082	0.38
9.24091	0.44
9.14312	0.65
9.04739	0.9
8.95363	1.15
8.8618	1.46
8.77183	1.8
8.68368	2.18
8.59727	2.52
8.51257	2.78
8.42951	2.97
8.34807	3.16
8.26819	3.42
8.18981	3.69
8.11292	3.93
8.03745	4.1
7.96337	4.3
7.89064	4.54
7.81924	4.74
7.74911	4.83
7.68023	4.83
7.61256	4.83
7.54608	4.81
7.48074	4.85
7.41653	5.04
7.35341	5.21
7.29136	5.35
7.23034	5.52
7.17033	5.5
7.11132	5.52
7.05327	5.68
6.99616	5.85
6.93996	6.05
6.88467	6.43
6.83024	6.91
6.77667	7.29
6.72393	7.52
6.67201	7.71
6.62089	7.97
6.57054	8.27
6.52095	8.58
6.4721	8.78
6.42398	8.79
6.37657	8.76
6.32986	8.69
6.28382	8.61
6.23845	8.45
6.19373	8.05
6.14965	7.41
6.10619	6.53
6.06334	5.64
6.02109	4.98
5.97942	4.47
5.93832	4.04
5.89778	3.92
5.8578	4.06
5.81835	4.25
5.77943	4.5
5.74103	4.89
5.70314	5.24
5.66574	5.64
5.62883	6
5.5924	6.14
5.55644	6.26
5.52093	6.35
5.48588	6.3
5.45127	6.36
5.41709	6.75
5.38334	7.15
5.35	7.56
5.31708	8.11
5.28456	9
5.25243	9.89
5.2207	10.4
5.18934	10.66
5.15836	10.83
5.12775	11
5.09749	11.15
5.0676	11.2
5.03805	11.22
5.00884	11.3
4.97998	11.43
4.95144	11.52
4.92322	11.58
4.89533	11.66
4.86775	11.7
4.84048	11.79
4.81351	11.87
4.78684	11.91
4.76047	11.97
4.73439	12.01
4.70859	12.03
4.68306	12.03
4.65782	12.05
4.63284	12.06
4.60814	12.07
4.58369	12.08
4.5595	12.1
4.53557	12.1
4.51188	12.1
4.48845	12.1
4.46525	12.12
4.44229	12.14
4.41957	12.16
4.39708	12.18
4.37481	12.21
4.35277	12.24
4.33096	12.25
4.30935	12.27
4.28797	12.29
4.26679	12.33
4.24583	12.38
4.22506	12.42
4.2045	12.46
4.18414	12.48
4.16398	12.51
4.14401	12.53
4.12423	12.55
4.10464	12.55
4.08523	12.53
4.066	12.51
4.04696	12.49
4.02809	12.45
4.0094	12.41
3.99088	12.38
3.97253	12.37
3.95435	12.4
3.93634	12.45
3.91848	12.49
3.90079	12.55
3.88326	12.59
3.86589	12.63
3.84867	12.67
3.8316	12.7
3.81468	12.71
3.79791	12.74
3.78129	12.76
3.76482	12.78
3.74848	12.79
3.73229	12.8
3.71624	12.81
3.70032	12.84
3.68454	12.84
3.6689	12.85
3.65338	12.88
3.638	12.89
3.62275	12.89
3.60762	12.91
3.59262	12.91
3.57775	12.89
3.56299	12.88
3.54836	12.85
3.53385	12.81
3.51945	12.73
3.50517	12.56
3.49101	12.59
3.47696	12.61
3.46303	12.6
3.4492	12.54
3.43549	12.44
3.42188	12.26
3.40838	12.23
3.39499	12.36
3.38171	12.35
3.36852	12.36
3.35544	12.42
3.34246	12.46
3.32958	12.45
3.3168	12.4
3.30411	12.37
3.29153	12.31
3.27903	12.27
3.26664	12.23
3.25433	12.17
3.24212	12.13
3.23	12.07
3.21797	12
3.20603	11.94
3.19418	11.87
3.18241	11.81
3.17074	11.75
3.15914	11.69
3.14763	11.63
3.13621	11.56
3.12487	11.47
3.11361	11.4
3.10243	11.33
3.09133	11.26
3.0803	11.2
3.06936	11.17
3.0585	11.13
3.04771	11.12
3.037	11.09
3.02636	11.04
3.0158	10.92
3.00531	10.76
2.99489	10.62
2.98454	10.54
2.97427	10.49
2.96407	10.48
2.95393	10.55
2.94387	10.63
2.93387	10.7
2.92394	10.73
2.91408	10.76
2.90429	10.76
2.89456	10.75
2.88489	10.71
2.87529	10.68
2.86576	10.66
2.85628	10.63
2.84687	10.27
2.83752	9.34
2.82823	8.03
2.81901	7.03
2.80984	7.65
2.80073	7.1
2.79168	7.47
2.78269	6.71
2.77376	6.02
2.76488	7.24
2.75606	7.26
2.7473	5.56
2.73859	7.31
2.72994	8.24
2.72134	8.87
2.7128	9.18
2.70431	10.83
2.69587	11.87
2.68748	13.01
2.67915	13.43
2.67087	13.61
2.66264	13.79
2.65446	13.86
2.64633	13.87
2.63825	13.91
2.63021	13.9
2.62223	13.97
2.6143	13.96
2.60641	13.96
2.59857	14.02
2.59078	14.07
2.58304	14.04
2.57534	14.07
2.56768	14.08
2.56008	14.06
2.55251	14.1
2.54499	14.11
2.53752	14.1
2.53009	14.11
2.5227	14.09
2.51536	14.12
2.50806	14.14
2.5008	14.12
2.49358	14.14
2.4864	14.2
2.47927	14.24
2.47218	14.25
2.46512	14.31
2.45811	14.33
2.45114	14.34
2.4442	14.34
2.43731	14.38
2.43045	14.36
2.42363	14.41
2.41685	14.45
2.41011	14.5
2.40341	14.48
2.39674	14.47
2.39011	14.37
2.38352	14.32
2.37696	14.35
2.37044	14.34
2.36395	14.32
2.35751	14.38
2.35109	14.44
2.34471	14.52
2.33836	14.58
2.33205	14.64
2.32578	14.73
2.31953	14.83
2.31332	14.86
2.30714	14.87
2.301	14.91
2.29489	14.91
2.28881	14.92
2.28276	14.94
2.27675	14.91
2.27076	14.91
2.26481	14.89
2.25889	14.88
2.253	14.95
2.24714	14.95
2.24131	15.02
2.23551	15.07
2.22974	15.1
2.224	15.11
2.21829	15.17
2.21261	15.16
2.20696	15.14
2.20134	15.14
2.19574	15.21
2.19018	15.26
2.18464	15.25
2.17913	15.28
2.17365	15.28
2.16819	15.33
2.16277	15.38
2.15737	15.38
2.15199	15.38
2.14665	15.39
2.14133	15.45
2.13603	15.49
2.13077	15.5
2.12552	15.51
2.12031	15.5
2.11512	15.5
2.10995	15.54
2.10481	15.52
2.0997	15.52
2.09461	15.56
2.08954	15.57
2.0845	15.57
2.07948	15.58
