Name: 62231.15
Type: Soil
Class: Lunar
Subclass: Highlands
Particle Size: Fine
Sample No.: 62231.15
Owner: JHU
Origin: Apollo 16 landing site via the NASA Lunar Sample Repository at Johnson
Description: Chemistry is not available for this extra sample, but it appears
Measurement: Directional (10 degree) hemispherical reflectance
X Units: Wavelength (micrometers)
Y Units: Reflectance (percent)
wavelength	value
14.011	0.7479
13.788	0.7913
13.571	0.9324
13.361	1.0808
13.158	1.0969
12.96	1.1819
12.769	1.4295
12.583	1.8552
12.402	2.1246
12.227	2.3235
12.056	2.2856
11.89	2.218
11.729	2.1888
11.572	2.1962
11.419	2.2557
11.27	2.2001
11.125	2.2308
10.983	2.2206
10.846	2.2722
10.711	2.2386
10.58	2.1344
10.452	1.9918
10.327	1.8252
10.205	1.6208
10.086	1.54
9.97	1.451
9.856	1.4093
9.745	1.4358
9.636	1.2931
9.53	1.2156
9.426	1.1308
9.324	1.1105
9.225	1.1069
9.127	1.1571
9.032	1.1683
8.938	1.1112
8.847	1.085
8.757	1.0922
8.669	1.0468
8.583	0.9374
8.499	0.8449
8.416	0.6827
8.335	0.5037
8.255	0.3935
8.177	0.4168
8.1	0.5363
8.025	0.7365
7.951	1.0864
7.879	1.5024
7.808	1.9847
7.737	2.4899
7.669	3.0833
7.601	3.6369
7.535	4.1737
7.47	4.7698
7.406	5.3144
7.343	5.8584
7.281	6.3864
7.22	6.8725
7.16	7.3252
7.102	7.7245
7.044	8.1459
6.987	8.5102
6.931	8.8287
6.875	9.1052
6.821	9.2991
6.768	9.5523
6.715	9.7718
6.663	9.8844
6.612	10.051
6.562	10.268
6.513	10.499
6.464	10.707
6.416	10.893
6.369	10.935
6.322	10.992
6.276	11.133
6.231	11.255
6.186	11.36
6.142	11.479
6.099	11.648
6.056	11.798
6.014	12.031
5.973	12.484
5.931	13.031
5.891	13.579
5.851	14.109
5.812	14.652
5.773	15.133
5.735	15.555
5.697	15.792
5.66	16.024
5.623	16.341
5.586	16.626
5.551	16.8
5.515	16.8
5.48	16.844
5.446	16.964
5.411	17.208
5.378	17.619
5.345	18.007
5.312	18.299
5.279	18.66
5.247	19.072
5.215	19.479
5.184	19.912
5.153	20.386
5.123	20.927
5.093	21.396
5.063	21.829
5.033	22.31
5.004	22.814
4.975	23.293
4.947	23.764
4.919	24.272
4.891	24.714
4.863	25.163
4.836	25.576
4.809	25.991
4.782	26.322
4.756	26.671
4.73	27.052
4.704	27.44
4.679	27.829
4.654	28.163
4.629	28.606
4.604	29.037
4.58	29.416
4.556	29.722
4.532	30.013
4.508	30.24
4.485	30.426
4.461	30.577
4.439	30.665
4.416	30.716
4.393	30.825
4.371	30.962
4.349	31.134
4.327	31.3
4.306	31.484
4.284	31.688
4.263	31.83
4.242	31.959
4.222	32.02
4.201	32.062
4.181	32.106
4.161	32.119
4.141	32.196
4.121	32.194
4.101	32.203
4.082	32.232
4.063	32.238
4.044	32.266
4.025	32.298
4.006	32.278
3.988	32.317
3.97	32.305
3.951	32.318
3.933	32.302
3.916	32.277
3.898	32.255
3.88	32.227
3.863	32.19
3.846	32.171
3.829	32.113
3.812	32.106
3.795	32.02
3.779	31.989
3.762	31.933
3.746	31.873
3.73	31.818
3.714	31.749
3.698	31.684
3.682	31.599
3.666	31.515
3.651	31.479
3.636	31.421
3.62	31.343
3.605	31.248
3.59	31.203
3.575	31.121
3.561	31.075
3.546	30.983
3.531	30.914
3.517	30.864
3.503	30.853
3.489	30.718
3.475	30.639
3.461	30.56
3.447	30.532
3.433	30.463
3.42	30.397
3.406	30.338
3.393	30.22
3.38	30.119
3.366	30.014
3.353	29.903
3.34	29.799
3.327	29.684
3.315	29.627
3.302	29.526
3.289	29.47
3.277	29.353
3.265	29.254
3.252	29.179
3.24	29.072
3.228	29.015
3.216	28.903
3.204	28.812
3.192	28.693
3.18	28.629
3.169	28.556
3.157	28.442
3.146	28.322
3.134	28.286
3.123	28.197
3.112	28.135
3.101	28.056
3.09	27.977
3.079	27.866
3.067	27.834
3.057	27.749
3.046	27.695
3.035	27.667
3.025	27.56
3.014	27.484
3.004	27.447
2.993	27.357
2.983	27.314
2.973	27.239
2.962	27.236
2.952	27.149
2.942	27.111
2.932	27.065
2.922	27.061
2.912	27.068
2.903	27.01
2.893	26.975
2.883	26.99
2.874	26.961
2.864	26.968
2.855	26.933
2.845	26.961
2.836	26.955
2.827	26.981
2.817	27.034
2.808	27.104
2.799	27.249
2.79	27.403
2.781	27.565
2.772	27.737
2.763	28.056
2.755	28.289
2.746	28.554
2.737	28.797
2.728	28.992
2.72	29.159
2.711	29.222
2.703	29.336
2.695	29.292
2.686	29.358
2.678	29.338
2.67	29.431
2.661	29.465
2.653	29.413
2.645	29.429
2.637	29.408
2.629	29.396
2.621	29.33
2.613	29.315
2.605	29.264
2.597	29.224
2.59	29.205
2.582	29.137
2.574	29.095
2.566	29.086
2.559	29.006
2.551	28.954
2.544	28.913
2.536	28.84
2.529	28.846
2.522	28.781
2.514	28.775
2.507	28.713
2.5	28.625
2.492	28.585
2.485	28.569
2.478	28.502
2.471	28.483
2.464	28.439
2.457	28.369
2.45	28.32
2.443	28.271
2.436	28.221
2.429	28.18
2.422	28.173
2.416	28.111
2.409	28.013
2.402	28.004
2.396	27.982
2.389	27.913
2.382	27.911
2.376	27.842
2.369	27.772
2.363	27.767
2.356	27.711
2.35	27.721
2.344	27.612
2.337	27.511
2.331	27.556
2.325	27.479
2.318	27.468
2.312	27.42
2.306	27.354
2.3	27.304
2.294	27.344
2.288	27.192
2.282	27.166
2.276	27.13
2.27	27.07
2.264	27.05
2.258	27.006
2.252	26.922
2.246	26.881
2.24	26.866
2.235	26.809
2.229	26.769
2.223	26.739
2.217	26.65
2.212	26.684
2.206	26.623
2.2	26.593
2.195	26.509
2.189	26.505
2.184	26.44
2.178	26.442
2.173	26.409
2.167	26.322
2.162	26.329
2.156	26.31
2.151	26.221
2.146	26.21
2.14	26.216
2.135	26.136
2.13	26.153
2.125	26.066
2.119	26.079
2.114	25.955
2.109	25.943
2.104	25.925
2.099	25.87
2.094	25.815
2.089	25.764
2.084	25.76
