Name: Brown to dark brown silt loam
Type: Soils
Class: Entisol
Subclass: Ustifluvent
Particle Size: see additional information
Sample No.: 82P2230
Owner: JHU
Origin: Near Bait Radam, Yemen via USDA Soil Conservation service.
Description: Parent material: alluvium.  Brown to dark brown silt
Measurement: Directional (10 degree) hemispherical reflectance
X Units: Wavelength (micrometers)
Y Units: Reflectance (percent)
wavelength	value
14.983	1.6128
14.645	1.6907
14.321	1.4167
14.011	1.6348
13.715	1.6103
13.43	1.6553
13.158	1.708
12.896	1.7436
12.644	1.7834
12.402	1.6199
12.169	1.7241
11.945	2.071
11.729	2.1645
11.52	2.2832
11.319	2.3999
11.125	2.5342
10.937	2.5283
10.755	2.581
10.58	2.7234
10.41	3.1577
10.245	3.6221
10.086	4.4744
9.931	5.2881
9.781	5.9431
9.636	7.021
9.495	7.53
9.358	6.787
9.225	5.6526
9.095	4.9267
8.969	4.6272
8.847	4.8374
8.727	4.5239
8.612	3.9187
8.499	4.2851
8.389	4.3159
8.281	4.6067
8.177	4.5322
8.075	3.5356
7.976	2.7559
7.879	2.3013
7.784	2.2239
7.692	2.2007
7.601	2.1811
7.513	2.2561
7.427	2.2422
7.343	2.2498
7.261	2.3376
7.18	2.4001
7.102	2.4795
7.025	2.501
6.949	2.6262
6.875	2.7517
6.803	2.876
6.733	2.998
6.663	2.9976
6.596	2.938
6.529	2.9602
6.464	3.0176
6.4	2.8313
6.338	2.6099
6.276	2.3052
6.216	1.8899
6.157	1.5811
6.099	1.4648
6.042	1.4836
5.986	1.689
5.931	2.0522
5.878	2.717
5.825	3.4497
5.773	4.0332
5.722	4.5393
5.672	4.7488
5.623	4.5928
5.574	4.5513
5.527	4.8625
5.48	5.2742
5.434	5.4546
5.389	5.1123
5.345	4.8879
5.301	5.164
5.258	5.7178
5.215	6.4968
5.174	6.821
5.133	6.973
5.093	7.117
5.053	7.167
5.014	7.195
4.975	7.658
4.937	8.224
4.9	8.909
4.863	9.567
4.827	9.898
4.791	10.132
4.756	10.337
4.721	10.462
4.687	10.51
4.654	10.778
4.62	11.115
4.588	11.317
4.556	11.574
4.524	11.674
4.492	11.713
4.461	11.913
4.431	12.238
4.401	12.561
4.371	12.984
4.342	13.336
4.313	13.598
4.284	13.804
4.256	14.154
4.229	14.435
4.201	14.884
4.174	15.165
4.147	15.495
4.121	15.764
4.095	16.008
4.069	16.252
4.044	16.439
4.019	16.467
3.994	16.418
3.97	16.426
3.945	16.599
3.921	16.613
3.898	16.532
3.875	16.396
3.852	16.209
3.829	16.065
3.806	15.797
3.784	15.525
3.762	15.165
3.74	14.786
3.719	14.391
3.698	13.965
3.677	13.575
3.656	13.149
3.636	12.682
3.615	12.245
3.595	11.773
3.575	11.334
3.556	10.742
3.536	10.263
3.517	9.706
3.498	9.119
3.479	8.68
3.461	8.308
3.442	7.837
3.424	7.289
3.406	6.853
3.388	6.5827
3.371	6.2165
3.353	5.8379
3.336	5.4526
3.319	5.1858
3.302	4.8364
3.285	4.4824
3.269	4.2297
3.252	3.8977
3.236	3.6877
3.22	3.4434
3.204	3.2082
3.188	3.0129
3.173	2.8852
3.157	2.676
3.142	2.4778
3.127	2.3643
3.112	2.2383
3.097	2.1934
3.082	2.0652
3.067	2.0288
3.053	1.9998
3.039	1.9727
3.025	1.9441
3.011	1.8909
2.997	1.8538
2.983	1.7764
2.969	1.7549
2.956	1.7395
2.942	1.7014
2.929	1.7773
2.916	1.6921
2.903	1.7053
2.89	1.7664
2.877	1.8152
2.864	1.7461
2.852	1.7812
2.839	1.7707
2.827	1.7422
2.814	1.7253
2.802	1.7222
2.79	1.6763
2.778	1.6436
2.766	1.5327
2.755	1.5349
2.743	1.6892
2.731	2.0725
2.72	2.5925
2.708	2.9082
2.697	3.9856
2.686	8.368
2.675	11.039
2.664	12.541
2.653	14.05
2.642	14.855
2.632	15.084
2.621	15.456
2.61	15.892
2.6	15.934
2.59	16.131
2.579	16.451
2.569	16.61
2.559	16.773
2.549	17.028
2.539	17.114
2.529	17.263
2.519	17.457
2.509	17.592
2.5	17.718
2.49	18.013
2.481	18.152
2.471	18.494
2.462	18.596
2.452	18.859
2.443	19.019
2.434	19.239
2.425	19.561
2.416	19.892
2.407	20.066
2.398	20.201
2.389	20.275
2.38	20.472
2.372	20.746
2.363	20.941
2.354	20.984
2.346	21.215
2.337	21.369
2.329	21.56
2.321	21.78
2.312	21.838
2.304	22.027
2.296	22.107
2.288	22.176
2.28	22.324
2.272	22.508
2.264	22.593
2.256	22.325
2.248	22.289
2.24	22.22
2.233	22.361
2.225	22.245
2.217	22.124
2.21	21.673
2.202	21.985
2.195	22.253
2.187	22.424
2.18	22.823
2.173	22.931
2.166	23.132
2.158	23.175
2.151	23.404
2.144	23.414
2.137	23.503
2.13	23.542
2.123	23.485
2.116	23.286
2.109	23.416
2.102	23.245
2.095	23.358
2.089	23.451
2.082	23.195
2.06	23.099
2.028	22.333
1.996	21.184
1.964	19.771
1.932	18.318
1.9	17.05
1.868	21.207
1.836	22.156
1.804	22.663
1.772	22.258
1.74	22.208
1.708	22.273
1.676	22.391
1.644	22.173
1.612	21.508
1.58	21.81
1.548	21.464
1.516	20.984
1.484	20.916
1.452	20.221
1.42	19.669
1.388	20.037
1.356	20.942
1.324	20.926
1.292	20.615
1.26	20.576
1.228	20.639
1.196	20.198
1.164	20.05
1.132	20.102
1.1	19.18
1.068	19.19
1.036	18.678
1.004	18.059
0.972	17.819
0.94	17.466
0.908	16.917
0.876	16.707
0.844	16.132
0.812	15.886
0.795	15.7
0.787	15.242
0.779	15.378
0.771	15.082
0.763	15.202
0.755	14.901
0.747	14.682
0.739	14.621
0.731	14.382
0.723	13.941
0.715	14.011
0.707	13.547
0.699	13.987
0.691	12.624
0.683	12.418
0.675	12.237
0.667	11.804
0.659	11.339
0.651	11.208
0.643	10.799
0.635	10.521
0.627	10.158
0.619	9.871
0.611	9.839
0.603	9.253
0.595	8.817
0.587	8.646
0.579	7.612
0.571	6.996
0.563	6.4228
0.555	6.0592
0.547	5.2421
0.539	4.6231
0.531	3.7211
0.523	3.4986
0.515	2.8173
0.507	2.043
0.499	1.9323
0.491	1.4566
0.483	1.0118
0.475	0.5952
0.467	0.3596
0.459	0
0.451	0
0.443	0
0.435	0
0.427	0
0.419	0
0.411	0
0.403	0
