Name: Rhodonite (Mn+2,Fe+2,Mg,Ca)SiO3
Type: Mineral
Class: Silicates
Subclass: Inosilicates (chain silicates); (Pyroxenoid Group)
Particle Size: Fine (Less than 2 Micrometers)
Sample No.: rhodon.1
Owner: JHU
Wavelength Range: IR
Origin: Franklin, New Jersey via the Smithsonian (sample no. NMNH
Description: The hand sample was composed of two fragments, each
Measurement: Transmission
X Units: Wavelength (micrometers)
Y Units: Transmittance (percent)
wavelength	value
25.044	84.6638
24.339	74.7381
23.672	75.5154
23.041	61.8436
22.442	43.1405
21.874	38.121
21.334	53.0116
20.82	65.5467
20.33	54.5311
19.863	55.3553
19.416	57.1756
18.99	71.9461
18.581	73.3924
18.19	81.492
17.815	71.7313
17.455	73.3289
17.109	78.6248
16.777	89.2752
16.458	91.24
16.15	92.0164
15.854	90.8982
15.568	87.6609
15.292	86.114
15.027	74.2127
14.77	87.115
14.521	88.2429
14.281	88.7468
14.049	87.8025
13.824	81.826
13.607	91.5798
13.396	92.7307
13.191	92.0452
12.993	91.1389
12.8	89.3264
12.614	88.1287
12.432	85.8523
12.256	82.8128
12.084	79.1111
11.918	73.5428
11.755	65.9471
11.598	53.786
11.444	44.0653
11.294	39.6488
11.149	30.0551
11.007	35.3671
10.868	36.8168
10.733	43.828
10.602	34.4633
10.473	36.0517
10.348	47.1727
10.225	58.1932
10.106	52.2186
9.989	47.5136
9.875	45.4105
9.763	39.2763
9.654	41.2548
9.547	42.1229
9.443	33.9672
9.341	35.0907
9.241	36.6181
9.143	40.0082
9.047	47.4418
8.954	60.037
8.862	68.5916
8.772	74.4686
8.684	78.4842
8.597	81.2683
8.513	83.5794
8.43	85.5945
8.348	87.823
8.268	89.7283
8.19	91.374
8.113	92.4705
8.037	93.2976
7.963	93.822
7.891	94.03
7.819	94.3298
7.749	94.9758
7.68	95.5449
7.613	95.9922
7.546	96.3806
7.481	96.7722
7.417	97.1697
7.353	97.5752
7.291	97.9385
7.23	98.2624
7.17	98.2805
7.111	98.5127
7.053	98.6912
6.996	98.7617
6.94	98.8672
6.885	99.0735
6.83	99.3708
6.777	99.5076
6.724	99.5364
6.672	99.6829
6.621	99.6506
6.571	99.8193
6.521	99.7322
6.472	99.6514
6.424	99.6081
6.377	99.4277
6.33	99.1555
6.284	99.1406
6.238	98.9578
6.194	98.6435
6.15	98.5788
6.106	98.8601
6.063	99.0098
6.021	99.1804
5.979	98.9336
5.938	99.5019
5.898	99.7744
5.858	99.9128
5.818	100.049
5.779	99.9783
5.741	100.098
5.703	100.101
5.666	100.115
5.629	100.119
5.592	100.092
5.556	100.175
5.521	100.198
5.486	100.222
5.451	100.235
5.417	100.178
5.383	100.052
5.35	100.003
5.317	99.9316
5.285	99.8703
5.252	99.8223
5.221	99.7549
5.189	99.7451
5.158	99.7341
5.128	99.7041
5.097	99.6745
5.068	99.6875
5.038	99.6579
5.009	99.6345
4.98	99.6765
4.951	99.6794
4.923	99.5823
4.895	99.6306
4.868	99.5554
4.84	99.5588
4.814	99.512
4.787	99.4807
4.76	99.4319
4.734	99.4319
4.709	99.3494
4.683	99.3386
4.658	99.2346
4.633	99.1902
4.608	99.1531
4.584	99.0945
4.56	99.0408
4.536	98.967
4.512	98.8689
4.488	98.8245
4.465	98.6809
4.442	98.6223
4.42	98.6086
4.397	98.5154
4.375	98.4441
4.353	98.3699
4.331	98.2878
4.309	98.2737
4.288	98.1423
4.267	98.133
4.246	98.0808
4.225	98.0496
4.205	97.9377
4.184	97.8733
4.164	97.8025
4.144	97.7224
4.124	97.5901
4.105	97.5437
4.085	97.4744
4.066	97.4089
4.047	97.3796
4.028	97.3362
4.009	97.2136
3.991	97.0803
3.973	97.012
3.954	96.948
3.936	96.8811
3.918	96.9163
3.901	96.7776
3.883	96.6838
3.866	96.5603
3.849	96.6467
3.832	96.5139
3.815	96.3542
3.798	96.3523
3.781	96.2737
3.765	96.198
3.748	96.1189
3.732	95.9177
3.716	95.9104
3.7	95.783
3.685	95.7327
3.669	95.6121
3.653	95.5706
3.638	95.5037
3.623	95.4275
3.608	95.2483
3.593	95.2092
3.578	95.0701
3.563	95.0491
3.548	95.0115
3.534	94.9314
3.519	94.9124
3.505	94.9373
3.491	94.8123
3.477	94.678
3.463	94.5549
3.449	94.6306
3.435	94.6091
3.422	94.7561
3.408	94.4514
3.395	94.2053
3.382	93.9646
3.369	93.8303
3.355	93.5857
3.342	93.4885
3.33	93.4158
3.317	93.1736
3.304	93.1326
3.292	93.0081
3.279	92.9319
3.267	92.8064
3.254	92.6609
3.242	92.5418
3.23	92.4558
3.218	92.3416
3.206	92.2771
3.194	92.0974
3.182	91.99
3.171	91.8748
3.159	91.7703
3.148	91.5193
3.136	91.4353
3.125	91.3875
3.114	91.3259
3.102	91.2595
3.091	91.1541
3.08	91.1658
3.069	91.0613
3.058	91.0437
3.048	91.0359
3.037	90.7713
3.026	90.6658
3.016	90.4099
3.005	90.2673
2.995	90.0974
2.985	90.0789
2.974	89.7498
2.964	89.3006
2.954	89.032
2.944	88.9109
2.934	88.7752
2.924	88.5603
2.914	88.3787
2.904	88.4295
2.895	88.5388
2.885	88.7615
2.875	88.7068
2.866	88.949
2.856	89.2224
2.847	89.3084
2.838	89.3611
2.828	89.2088
2.819	89.2068
2.81	89.0701
2.801	89.1677
2.792	89.3601
2.783	89.3611
2.774	89.2361
2.765	89.3875
2.756	89.5818
2.747	89.6873
2.739	89.864
2.73	89.9461
2.721	90.0203
2.713	89.9998
2.704	89.9763
2.696	90.0789
2.687	90.1218
2.679	90.0857
2.671	90.157
2.663	89.9881
2.654	89.8679
2.646	89.8552
2.638	89.867
2.63	89.6404
2.622	89.8416
2.614	89.6677
2.606	89.5838
2.599	89.615
2.591	89.6267
2.583	89.6834
2.575	89.4138
2.568	89.1756
2.56	89.2048
2.553	89.0076
2.545	89.0584
2.538	89.2966
2.53	89.0193
2.523	88.8591
2.515	88.8982
2.508	88.8826
2.501	88.6951
2.494	88.8142
2.486	88.783
2.479	88.7205
2.472	88.492
2.465	88.7498
2.458	88.3299
2.451	88.7205
2.444	88.2107
2.437	88.2908
2.43	88.2459
2.424	88.1209
2.417	87.783
2.41	88.2537
2.403	88.0857
2.397	87.9373
2.39	87.8377
2.384	87.5506
2.377	87.7927
2.37	87.7283
2.364	87.658
2.358	87.5252
2.351	87.281
2.345	87.4861
2.338	87.3123
2.332	87.4314
2.326	87.3142
2.32	86.9783
2.313	87.0623
2.307	86.9295
2.301	86.8748
2.295	87.0935
2.289	86.9138
2.283	86.5174
2.277	86.7576
2.271	86.4881
2.265	86.3982
2.259	86.6482
2.253	86.5037
2.247	86.0974
2.241	86.2732
2.236	86.2459
2.23	86.1482
2.224	85.9451
2.218	85.7967
2.213	85.6638
2.207	86.1599
2.201	85.8513
2.196	85.4763
2.19	85.5818
2.185	85.4802
2.179	85.4451
2.174	85.2537
2.168	85.531
2.163	85.2303
2.157	85.0701
2.152	85.4685
2.147	85.0701
2.141	84.9217
2.136	84.8006
2.131	84.5935
2.126	84.2381
2.12	84.7068
2.115	84.4568
2.11	84.5701
2.105	84.5974
2.1	84.3006
2.095	84.6131
2.09	84.2342
2.085	84.2381
2.079	84.0037
