Name: Pyrite FeS2
Type: Mineral
Class: Sulfides
Particle Size: Fine  (0 - 74  Micrometers)
Sample No.: pyrite.1
Owner: JHU
Wavelength Range: IR
Origin: Ambassaguas, Logrono, Castilla la Vieja, Spain via the
Description: Large cubic (3cm/side) piece with yellow metallic luster,
Measurement: Bidirectional reflectance
X Units: Wavelength (micrometers)
Y Units: Reflectance (percent)
wavelength	value
25.0442	5.2139
24.3388	5.5117
23.6719	4.303
23.0407	2.2139
22.4422	1.6636
21.8741	2.3164
21.334	2.4431
20.8199	2.5298
20.33	2.5874
19.8627	2.5806
19.4163	2.4197
18.9896	2.365
18.5812	2.3889
18.19	2.3623
17.815	2.3855
17.4551	2.4509
17.1094	2.4087
16.7772	2.3601
16.4576	2.2615
16.15	2.356
15.8537	2.3203
15.568	2.4021
15.2925	2.4394
15.0265	2.3274
14.7697	2.6338
14.5214	2.908
14.2814	2.9656
14.0492	2.8894
13.8244	3.0405
13.6067	3.1433
13.3957	3.2468
13.1912	3.2248
12.9929	3.2659
12.8004	3.407
12.6135	3.123
12.432	3.1345
12.2557	3.0637
12.0843	3.1912
11.9176	3.5696
11.7555	3.9802
11.5977	4.2317
11.444	4.4189
11.2944	4.4597
11.1487	4.4114
11.0067	4.3489
10.8682	4.2956
10.7332	4.1929
10.6015	4.0491
10.473	3.8574
10.3476	3.656
10.2251	3.448
10.1056	3.2314
9.98873	3.0095
9.87458	2.6482
9.763	2.6479
9.65392	2.6641
9.54724	2.5952
9.44291	2.5112
9.34082	2.4319
9.24091	2.3623
9.14312	2.4045
9.04739	2.4419
8.95363	2.4324
8.8618	2.4822
8.77183	2.5168
8.68368	2.5237
8.59727	2.5432
8.51257	2.5723
8.42951	2.6208
8.34807	2.729
8.26819	2.9402
8.18981	3.2185
8.11292	3.5527
8.03745	3.8091
7.96337	4.1147
7.89064	4.5542
7.81924	5.0161
7.74911	5.4592
7.68023	5.7864
7.61256	6.0149
7.54608	6.219
7.48074	6.4226
7.41653	6.553
7.35341	6.6743
7.29136	6.7688
7.23034	6.8308
7.17033	6.8808
7.11132	6.9338
7.05327	6.9451
6.99616	6.9453
6.93996	6.9099
6.88467	6.812
6.83024	6.6575
6.77667	6.4897
6.72393	6.3362
6.67201	6.2981
6.62089	6.4389
6.57054	6.5603
6.52095	6.665
6.4721	6.6662
6.42398	6.5774
6.37657	6.48
6.32986	6.2861
6.28382	5.947
6.23845	5.4514
6.19373	4.9971
6.14965	4.8196
6.10619	4.7976
6.06334	4.9595
6.02109	5.2429
5.97942	5.449
5.93832	5.7156
5.89778	6.1333
5.8578	6.5139
5.81835	6.7763
5.77943	6.9919
5.74103	7.1555
5.70314	7.3213
5.66574	7.4731
5.62883	7.6076
5.5924	7.7314
5.55644	7.8323
5.52093	7.9294
5.48588	8.008
5.45127	8.073
5.41709	8.1338
5.38334	8.1907
5.35	8.2248
5.31708	8.2585
5.28456	8.2888
5.25243	8.3078
5.2207	8.3154
5.18934	8.3113
5.15836	8.3027
5.12775	8.2839
5.09749	8.2595
5.0676	8.2224
5.03805	8.1738
5.00884	8.1374
4.97998	8.1069
4.95144	8.0508
4.92322	7.9851
4.89533	7.9441
4.86775	7.9104
4.84048	7.8462
4.81351	7.7832
4.78684	7.7475
4.76047	7.7302
4.73439	7.677
4.70859	7.5534
4.68306	7.4919
4.65782	7.4609
4.63284	7.4558
4.60814	7.4128
4.58369	7.3655
4.5595	7.3244
4.53557	7.2827
4.51188	7.2429
4.48845	7.2075
4.46525	7.1802
4.44229	7.175
4.41957	7.1699
4.39708	7.1518
4.37481	7.123
4.35277	7.0901
4.33096	7.0659
4.30935	7.0491
4.28797	7.0344
4.26679	7.0259
4.24583	7.0232
4.22506	7.0159
4.2045	7.0112
4.18414	7.0105
4.16398	7.0119
4.14401	7.0127
4.12423	7.0107
4.10464	7.0102
4.08523	7.0076
4.066	7.0032
4.04696	6.9985
4.02809	6.9883
4.0094	6.9851
3.99088	6.9712
3.97253	6.9563
3.95435	6.9453
3.93634	6.9255
3.91848	6.9106
3.90079	6.8891
3.88326	6.8628
3.86589	6.8191
3.84867	6.7768
3.8316	6.7234
3.81468	6.6655
3.79791	6.5915
3.78129	6.5207
3.76482	6.4421
3.74848	6.365
3.73229	6.2829
3.71624	6.2034
3.70032	6.1162
3.68454	6.0315
3.6689	5.9556
3.65338	5.8735
3.638	5.8005
3.62275	5.7156
3.60762	5.6421
3.59262	5.5661
3.57775	5.4931
3.56299	5.4209
3.54836	5.3494
3.53385	5.2764
3.51945	5.1924
3.50517	5.0813
3.49101	5.0395
3.47696	4.967
3.46303	4.8906
3.4492	4.8042
3.43549	4.7109
3.42188	4.5932
3.40838	4.5481
3.39499	4.4983
3.38171	4.4346
3.36852	4.3669
3.35544	4.3022
3.34246	4.2361
3.32958	4.1587
3.3168	4.0891
3.30411	4.02
3.29153	3.9536
3.27903	3.8892
3.26664	3.832
3.25433	3.7766
3.24212	3.7244
3.23	3.6741
3.21797	3.6272
3.20603	3.583
3.19418	3.5366
3.18241	3.4907
3.17074	3.4443
3.15914	3.3982
3.14763	3.3533
3.13621	3.301
3.12487	3.2463
3.11361	3.1931
3.10243	3.1409
3.09133	3.0908
3.0803	3.0566
3.06936	3.0366
3.0585	3.0293
3.04771	3.0281
3.037	3.0334
3.02636	3.0398
3.0158	3.0532
3.00531	3.0727
2.99489	3.0947
2.98454	3.1199
2.97427	3.1477
2.96407	3.1824
2.95393	3.2187
2.94387	3.2524
2.93387	3.2871
2.92394	3.3323
2.91408	3.3733
2.90429	3.4331
2.89456	3.5112
2.88489	3.5994
2.87529	3.7019
2.86576	3.8074
2.85628	3.918
2.84687	4.0283
2.83752	4.1443
2.82823	4.2705
2.81901	4.3916
2.80984	4.5266
2.80073	4.6492
2.79168	4.7837
2.78269	4.9309
2.77376	5.095
2.76488	5.2912
2.75606	5.511
2.7473	5.8047
2.73859	6.0652
2.72994	6.3235
2.72134	6.509
2.7128	6.7026
2.70431	6.8393
2.69587	6.9106
2.68748	6.9719
2.67915	6.9978
2.67087	6.9983
2.66264	7.0451
2.65446	7.0495
2.64633	7.0525
2.63825	7.0471
2.63021	7.0305
2.62223	7.0373
2.6143	7.042
2.60641	7.0117
2.59857	7.0327
2.59078	7.02
2.58304	7.0117
2.57534	7.0127
2.56768	7.0119
2.56008	7.0132
2.55251	7.0141
2.54499	7.0198
2.53752	7.0093
2.53009	7.009
2.5227	7.0097
2.51536	7.0102
2.50806	7.0073
2.5008	6.9953
2.49358	6.9814
2.4864	6.9748
2.47927	6.9599
2.47218	6.9499
2.46512	6.9326
2.45811	6.917
2.45114	6.8974
2.4442	6.8828
2.43731	6.8791
2.43045	6.8598
2.42363	6.8559
2.41685	6.8452
2.41011	6.8335
2.40341	6.8284
2.39674	6.8188
2.39011	6.8169
2.38352	6.812
2.37696	6.8142
2.37044	6.8071
2.36395	6.7973
2.35751	6.789
2.35109	6.7817
2.34471	6.7715
2.33836	6.7593
2.33205	6.7461
2.32578	6.729
2.31953	6.7126
2.31332	6.6904
2.30714	6.6811
2.301	6.6626
2.29489	6.6372
2.28881	6.625
2.28276	6.605
2.27675	6.591
2.27076	6.5727
2.26481	6.5576
2.25889	6.5361
2.253	6.5163
2.24714	6.5014
2.24131	6.4863
2.23551	6.467
2.22974	6.4424
2.224	6.4272
2.21829	6.3967
2.21261	6.3743
2.20696	6.3506
2.20134	6.3257
2.19574	6.2995
2.19018	6.2707
2.18464	6.2554
2.17913	6.2173
2.17365	6.1955
2.16819	6.1806
2.16277	6.1516
2.15737	6.1323
2.15199	6.1108
2.14665	6.0879
2.14133	6.0791
2.13603	6.0542
2.13077	6.0403
2.12552	6.0207
2.12031	6.0058
2.11512	5.9829
2.10995	5.9631
2.10481	5.9553
2.0997	5.9424
2.09461	5.9094
2.08954	5.8921
2.0845	5.8694
2.07948	5.853
