Name: Cordierite Mg2Al4Si5O18
Type: Mineral
Class: Silicates
Subclass: Cyclosilicates (Ring Silicates)
Particle Size: Fine  (0 - 74 Micrometers)
Sample No.: cordier.2
Owner: JHU
Wavelength Range: IR
Origin: Sample from Orijarvi, Finland via the Smithsonian  (sample
Description: The sample consists of three pieces, each about 2 cm x 4
Measurement: Bidirectional reflectance
X Units: Wavelength (micrometers)
Y Units: Reflectance (percent)
wavelength	value
25.044	3.6455
24.339	3.4434
23.672	3.1826
23.041	2.6838
22.442	2.7768
21.874	2.5149
21.334	2.5723
20.82	2.9136
20.33	2.8247
19.863	2.4863
19.416	1.5869
18.99	1.5847
18.581	2.0185
18.19	2.2122
17.815	2.1001
17.455	1.9644
17.109	2.0247
16.777	1.8086
16.458	1.8403
16.15	1.9394
15.854	1.9363
15.568	2.1416
15.292	2.1863
15.027	2.2363
14.77	1.9954
14.521	2.2891
14.281	2.4216
14.049	2.6135
13.824	2.6902
13.607	2.3953
13.396	2.033
13.191	1.9551
12.993	2.1121
12.8	2.0603
12.614	2.009
12.432	2.0583
12.256	2.4153
12.084	2.592
11.918	2.9785
11.755	3.0012
11.598	2.8638
11.444	2.6235
11.294	2.3721
11.149	2.165
11.007	2.0823
10.868	1.9521
10.733	1.9978
10.602	2.3982
10.473	2.7747
10.348	2.8144
10.225	2.7451
10.106	2.6396
9.989	2.2358
9.875	2.0251
9.763	2.0583
9.654	2.0339
9.547	2.0352
9.443	2.1721
9.341	2.2361
9.241	2.1518
9.143	1.9807
9.047	1.9748
8.954	1.8447
8.862	1.7158
8.772	1.8005
8.684	1.6038
8.597	1.874
8.513	2.2568
8.43	2.6929
8.348	3.0688
8.268	3.6477
8.19	4.5671
8.113	5.3266
8.037	4.7317
7.963	3.779
7.891	2.8315
7.819	2.2451
7.749	2.1008
7.68	2.2683
7.613	2.647
7.546	3.0664
7.481	3.4722
7.417	3.8655
7.353	4.1816
7.291	4.4861
7.23	4.7856
7.17	5.103
7.111	5.4162
7.053	5.6658
6.996	5.8872
6.94	6.0491
6.885	6.0859
6.83	5.9353
6.777	6.0146
6.724	6.2041
6.672	6.373
6.621	6.5451
6.571	6.7825
6.521	7.0744
6.472	6.6543
6.424	6.3152
6.377	5.866
6.33	6.2734
6.284	6.3667
6.238	6.0845
6.194	6.4509
6.15	5.5159
6.106	4.4568
6.063	6.1799
6.021	6.8916
5.979	7.3193
5.938	7.5757
5.898	7.7658
5.858	7.9792
5.818	8.0852
5.779	8.2773
5.741	8.5532
5.703	8.884
5.666	9.091
5.629	9.3347
5.592	9.6013
5.556	9.7051
5.521	9.7448
5.486	9.6079
5.451	9.2844
5.417	9.144
5.383	8.8882
5.35	8.5974
5.317	8.5049
5.285	8.56
5.252	8.6885
5.221	8.9502
5.189	9.4016
5.158	10.0327
5.128	10.6882
5.097	11.2483
5.068	11.7822
5.038	12.3418
5.009	12.6899
4.98	12.9514
4.951	13.4707
4.923	13.8962
4.895	14.2187
4.868	14.4799
4.84	14.6784
4.814	14.8122
4.787	14.905
4.76	14.9975
4.734	15.1743
4.709	15.3628
4.683	15.4838
4.658	15.6572
4.633	15.7607
4.608	15.8313
4.584	15.9411
4.56	16.1232
4.536	16.3274
4.512	16.3989
4.488	16.2937
4.465	15.9892
4.442	16.0913
4.42	16.2146
4.397	16.1794
4.375	15.4838
4.353	15.635
4.331	14.0747
4.309	15.1711
4.288	13.1284
4.267	9.2617
4.246	11.1189
4.225	16.1157
4.205	15.8276
4.184	14.2053
4.164	16.8989
4.144	17.581
4.124	17.7004
4.105	17.6909
4.085	17.7004
4.066	17.6416
4.047	17.9008
4.028	18.0153
4.009	18.0832
3.991	18.1047
3.973	18.1369
3.954	18.1733
3.936	18.1962
3.918	18.2192
3.901	18.2377
3.883	18.2329
3.866	18.2033
3.849	18.187
3.832	18.1445
3.815	18.1154
3.798	18.1435
3.781	18.1206
3.765	18.0788
3.748	18.0395
3.732	17.9804
3.716	17.9184
3.7	17.833
3.685	17.7668
3.669	17.6999
3.653	17.6547
3.638	17.5915
3.623	17.5039
3.608	17.4309
3.593	17.3278
3.578	17.2277
3.563	17.1191
3.548	17.0161
3.534	16.893
3.519	16.7473
3.505	16.5227
3.491	16.4787
3.477	16.4138
3.463	16.3342
3.449	16.1887
3.435	16.021
3.422	15.7739
3.408	15.6772
3.395	15.6721
3.382	15.5481
3.369	15.4736
3.355	15.3828
3.342	15.2524
3.33	15.1186
3.317	14.9653
3.304	14.8239
3.292	14.6552
3.279	14.5012
3.267	14.3242
3.254	14.1726
3.242	14.0009
3.23	13.8127
3.218	13.6013
3.206	13.3691
3.194	13.1638
3.182	12.9441
3.171	12.7224
3.159	12.4648
3.148	12.2273
3.136	11.9695
3.125	11.7158
3.114	11.4524
3.102	11.1687
3.091	10.8247
3.08	10.5395
3.069	10.3833
3.058	10.1889
3.048	9.967
3.037	9.7466
3.026	9.499
3.016	9.2478
3.005	9.0002
2.995	8.7656
2.985	8.5627
2.974	8.3471
2.964	8.1357
2.954	7.9553
2.944	7.7798
2.934	7.6123
2.924	7.4678
2.914	7.3506
2.904	7.2637
2.895	7.1665
2.885	7.0259
2.875	6.9038
2.866	6.7388
2.856	6.5456
2.847	6.3686
2.838	6.1484
2.828	5.9233
2.819	5.6411
2.81	5.2583
2.801	4.688
2.792	4.6362
2.783	4.9585
2.774	4.8865
2.765	4.3486
2.756	4.0918
2.747	4.2363
2.739	4.5815
2.73	5.0366
2.721	5.1089
2.713	4.1753
2.704	5.2417
2.696	8.094
2.687	11.5942
2.679	13.4013
2.671	14.3342
2.663	15.0232
2.654	15.3825
2.646	15.5283
2.638	15.7353
2.63	15.8459
2.622	15.9638
2.614	16.0463
2.606	16.1245
2.599	16.3364
2.591	16.3989
2.583	16.4565
2.575	16.664
2.568	16.8073
2.56	17.0019
2.553	17.1484
2.545	17.384
2.538	17.7248
2.53	17.9853
2.523	18.2424
2.515	18.467
2.508	18.6633
2.501	18.913
2.494	19.0458
2.486	19.1835
2.479	19.332
2.472	19.4956
2.465	19.5249
2.458	19.5939
2.451	19.7158
2.444	19.7626
2.437	19.8769
2.43	20.0078
2.424	20.0981
2.417	20.1777
2.41	20.2717
2.403	20.291
2.397	20.2802
2.39	20.2502
2.384	20.2373
2.377	20.2707
2.37	20.2561
2.364	20.259
2.358	20.247
2.351	20.2434
2.345	20.2587
2.338	20.2392
2.332	20.248
2.326	20.3046
2.32	20.4184
2.313	20.4819
2.307	20.5478
2.301	20.6684
2.295	20.685
2.289	20.7646
2.283	20.7582
2.277	20.7968
2.271	20.8129
2.265	20.7753
2.259	20.7758
2.253	20.748
2.247	20.7211
2.241	20.8207
2.236	20.958
2.23	20.9653
2.224	20.9365
2.218	20.8696
2.213	20.746
2.207	20.6494
2.201	20.8505
2.196	21.0024
2.19	20.9951
2.185	21.1054
2.179	21.1406
2.174	21.2373
2.168	21.309
2.163	21.5117
2.157	21.5786
2.152	21.7138
2.147	21.7289
2.141	21.7875
2.136	21.8461
2.131	21.8696
2.126	22.0082
2.12	22.0976
2.115	22.1484
2.11	22.1581
2.105	22.2309
2.1	22.3305
2.095	22.3115
2.09	22.395
2.085	22.33
2.079	22.54
