Name: ALHA 77216
Type: Stony Meteorites
Class: Ordinary Chondrite
Subclass: L3
Particle Size: 0-75 micrometers
Sample No.: ALHA 77216
Owner: JHU
Origin: Meteorite found in Antarctica in 1977.  Smithsonian sample No. USNM
Description: None.
Measurement: Bidirectional reflectance
X Units: Wavelength (micrometers)
Y Units: Reflectance (percent)
wavelength	value
25.044	0.8774
24.339	0.9685
23.672	0.8818
23.041	0.7312
22.442	0.7429
21.874	0.531
21.334	0.748
20.82	0.7441
20.33	0.873
19.863	0.866
19.416	0.885
18.99	0.8635
18.581	0.8337
18.19	0.7795
17.815	0.7173
17.455	0.7651
17.109	0.7327
16.777	0.6196
16.458	0.6621
16.15	0.6663
15.854	0.6318
15.568	0.5869
15.292	0.585
15.027	0.7454
14.77	0.8318
14.521	0.9219
14.281	1.1289
14.049	1.1836
13.824	1.1182
13.607	1.2568
13.396	1.3894
13.191	1.5989
12.993	1.688
12.8	1.6855
12.614	1.6602
12.432	1.657
12.256	1.5173
12.084	1.2332
11.918	0.9609
11.755	0.9983
11.598	1.0207
11.444	1.1094
11.294	1.1008
11.149	1.0666
11.007	1.0259
10.868	1.0837
10.733	1.1562
10.602	1.0832
10.473	0.9446
10.348	0.8755
10.225	0.8601
10.106	0.8032
9.9887	0.7617
9.8746	0.7458
9.763	0.7212
9.6539	0.7744
9.5472	0.8298
9.4429	0.8455
9.3408	0.8157
9.2409	0.7561
9.1431	0.7644
9.0474	0.7544
8.9536	0.7434
8.8618	0.7151
8.7718	0.6614
8.6837	0.6704
8.5973	0.6887
8.5126	0.7651
8.4295	0.9248
8.3481	1.1492
8.2682	1.4548
8.1898	1.7339
8.1129	1.9724
8.0374	2.1699
7.9634	2.3511
7.8906	2.5122
7.8192	2.6284
7.7491	2.7512
7.6802	2.835
7.6126	2.9026
7.5461	2.9729
7.4807	3.0593
7.4165	3.1318
7.3534	3.228
7.2914	3.2964
7.2303	3.3743
7.1703	3.4578
7.1113	3.5173
7.0533	3.5901
6.9962	3.6787
6.94	3.7351
6.8847	3.79
6.8302	3.8193
6.7767	3.8621
6.7239	3.8704
6.672	3.8777
6.6209	3.8667
6.5705	3.8894
6.5209	3.9177
6.4721	3.939
6.424	3.935
6.3766	3.9026
6.3299	3.8516
6.2838	3.813
6.2385	3.7974
6.1937	3.7854
6.1496	3.7671
6.1062	3.7248
6.0633	3.6609
6.0211	3.6106
5.9794	3.7129
5.9383	3.8474
5.8978	3.9565
5.8578	4.0308
5.8184	4.0867
5.7794	4.1308
5.741	4.1035
5.7031	4.0408
5.6657	3.9617
5.6288	3.989
5.5924	4.116
5.5564	4.2239
5.5209	4.2607
5.4859	4.2707
5.4513	4.2915
5.4171	4.3594
5.3833	4.4133
5.35	4.4646
5.3171	4.4683
5.2846	4.4473
5.2524	4.4355
5.2207	4.4275
5.1893	4.4245
5.1584	4.4209
5.1277	4.4726
5.0975	4.5051
5.0676	4.5491
5.038	4.5847
5.0088	4.6123
4.98	4.6208
4.9514	4.6575
4.9232	4.7158
4.8953	4.7695
4.8678	4.8122
4.8405	4.8545
4.8135	4.8808
4.7868	4.9326
4.7605	4.9687
4.7344	4.9971
4.7086	5.0229
4.6831	5.0539
4.6578	5.0798
4.6328	5.1145
4.6081	5.1418
4.5837	5.1738
4.5595	5.1955
4.5356	5.1946
4.5119	5.2046
4.4884	5.2048
4.4652	5.2007
4.4423	5.2134
4.4196	5.2158
4.3971	5.2156
4.3748	5.2104
4.3528	5.2178
4.331	5.2178
4.3094	5.2241
4.288	5.2161
4.2668	5.2214
4.2458	5.2287
4.2251	5.2327
4.2045	5.2427
4.1841	5.2368
4.164	5.2412
4.144	5.2366
4.1242	5.2405
4.1046	5.237
4.0852	5.2292
4.066	5.2246
4.047	5.2261
4.0281	5.2236
4.0094	5.2068
3.9909	5.2158
3.9725	5.1973
3.9544	5.1841
3.9363	5.1741
3.9185	5.1653
3.9008	5.1511
3.8833	5.1445
3.8659	5.1362
3.8487	5.1201
3.8316	5.1008
3.8147	5.0906
3.7979	5.0764
3.7813	5.0659
3.7648	5.0412
3.7485	5.0412
3.7323	5.0159
3.7162	4.998
3.7003	4.978
3.6845	4.9692
3.6689	4.9414
3.6534	4.9292
3.638	4.8957
3.6227	4.8865
3.6076	4.8647
3.5926	4.8467
3.5777	4.812
3.563	4.79
3.5484	4.7478
3.5338	4.7307
3.5195	4.6836
3.5052	4.6474
3.491	4.6201
3.477	4.5937
3.463	4.5849
3.4492	4.5422
3.4355	4.5151
3.4219	4.4612
3.4084	4.4368
3.395	4.4248
3.3817	4.3962
3.3685	4.3865
3.3554	4.3669
3.3425	4.3408
3.3296	4.3118
3.3168	4.2876
3.3041	4.25
3.2915	4.2192
3.279	4.1841
3.2666	4.1423
3.2543	4.1233
3.2421	4.092
3.23	4.0547
3.218	4.0264
3.206	3.9861
3.1942	3.9656
3.1824	3.9385
3.1707	3.884
3.1591	3.8625
3.1476	3.8315
3.1362	3.7976
3.1249	3.7778
3.1136	3.7522
3.1024	3.7236
3.0913	3.719
3.0803	3.696
3.0694	3.6699
3.0585	3.6426
3.0477	3.6306
3.037	3.6216
3.0264	3.6033
3.0158	3.5879
3.0053	3.5535
2.9949	3.5483
2.9845	3.5193
2.9743	3.5049
2.9641	3.4846
2.9539	3.4717
2.9439	3.47
2.9339	3.4473
2.9239	3.4238
2.9141	3.4353
2.9043	3.4294
2.8946	3.4175
2.8849	3.4121
2.8753	3.3962
2.8658	3.3926
2.8563	3.4023
2.8469	3.3975
2.8375	3.4258
2.8282	3.4062
2.819	3.4172
2.8098	3.4365
2.8007	3.4578
2.7917	3.4631
2.7827	3.4902
2.7738	3.5215
2.7649	3.5576
2.7561	3.6116
2.7473	3.6641
2.7386	3.7331
2.7299	3.8003
2.7213	3.8469
2.7128	3.9546
2.7043	3.9914
2.6959	4.0359
2.6875	4.0906
2.6791	4.1221
2.6709	4.1365
2.6626	4.1545
2.6545	4.1511
2.6463	4.1572
2.6382	4.1453
2.6302	4.1323
2.6222	4.1101
2.6143	4.0989
2.6064	4.0696
2.5986	4.0527
2.5908	4.0618
2.583	4.0347
2.5753	4.0288
2.5677	4.0315
2.5601	3.9829
2.5525	3.9809
2.545	3.9473
2.5375	3.9402
2.5301	3.8967
2.5227	3.9016
2.5154	3.8787
2.5081	3.8559
2.5008	3.8486
2.4936	3.8511
2.4864	3.8147
2.4793	3.7866
2.4722	3.8013
2.4651	3.7554
2.4581	3.7405
2.4511	3.749
2.4442	3.6936
2.4373	3.6809
2.4305	3.6704
2.4236	3.6645
2.4169	3.6777
2.4101	3.6575
2.4034	3.6099
2.3967	3.6338
2.3901	3.5933
2.3835	3.5979
2.377	3.5757
2.3704	3.5798
2.364	3.5493
2.3575	3.5466
2.3511	3.4963
2.3447	3.5127
2.3384	3.522
2.3321	3.4834
2.3258	3.4631
2.3195	3.4648
2.3133	3.4768
2.3071	3.4473
2.301	3.4236
2.2949	3.4285
2.2888	3.4228
2.2828	3.4407
2.2767	3.4248
2.2708	3.4214
2.2648	3.4326
2.2589	3.3921
2.253	3.374
2.2471	3.4001
2.2413	3.3755
2.2355	3.3723
2.2297	3.3769
2.224	3.344
2.2183	3.3755
2.2126	3.376
2.207	3.3738
2.2013	3.3484
2.1957	3.3152
2.1902	3.3188
2.1846	3.3408
2.1791	3.3147
2.1736	3.3086
2.1682	3.3262
2.1628	3.2847
2.1574	3.2847
2.152	3.2805
2.1466	3.2663
2.1413	3.2834
2.136	3.2773
2.1308	3.2942
2.1255	3.313
2.1203	3.3464
2.1151	3.3257
2.11	3.3201
2.1048	3.3037
2.0997	3.2783
2.0946	3.3074
2.0895	3.291
2.0845	3.3013
2.0795	3.3352
