Name: Alunite (potassium alunite) KAl3(SO4)2(OH)6
Type: Mineral
Class: Sulfates
Particle Size: 0-15 micrometers (packed powder simulates coarse).
Sample No.: alunite.3
Owner: JHU
Wavelength Range: IR
Origin: Synthetic; Synthesized by Roger Stoffregen, supplied by Phil
Description: The sample was a light gray, microcrystalline powder
Measurement: Bidirectional Reflectance
X Units: Wavelength (micrometers)
Y Units: Reflectance (percent)
wavelength	value
25.044	7.0371
24.339	7.3752
23.672	7.8557
23.041	8.5566
22.442	5.7959
21.874	5.8301
21.334	6.331
20.82	6.7688
20.33	6.4743
19.863	6.626
19.416	6.8374
18.99	7.2173
18.581	6.1926
18.19	6.5251
17.815	6.873
17.455	7.1911
17.109	7.8435
16.777	9.8159
16.458	9.5959
16.15	7.9653
15.854	9.7446
15.568	10.6828
15.292	5.5288
15.027	6.9534
14.77	8.831
14.521	10.5058
14.281	11.8911
14.049	13.3911
13.824	14.6858
13.607	11.2011
13.396	5.6279
13.191	2.2556
12.993	2.0325
12.8	2.3567
12.614	2.6929
12.432	2.9094
12.256	3.071
12.084	3.3335
11.918	3.5029
11.755	3.717
11.598	3.831
11.444	3.9414
11.294	4.0044
11.149	4.1121
11.007	4.2278
10.868	4.4275
10.733	4.6262
10.602	4.7934
10.473	4.9304
10.348	5.064
10.225	5.0913
10.106	5.1304
9.989	5.1772
9.875	5.1387
9.763	5.0161
9.654	4.9065
9.547	5.2021
9.443	5.3664
9.341	6.1308
9.241	6.9934
9.143	7.5188
9.047	8.0693
8.954	8.7766
8.862	9.2832
8.772	9.1198
8.684	8.0425
8.597	8.2138
8.513	7.5625
8.43	5.7949
8.348	4.8747
8.268	4.4702
8.19	4.522
8.113	4.8108
8.037	5.2866
7.963	6.2861
7.891	6.7917
7.819	5.6848
7.749	3.4663
7.68	2.2146
7.613	1.865
7.546	1.887
7.481	1.9692
7.417	2.1543
7.353	2.3591
7.291	2.4968
7.23	2.6528
7.17	2.7815
7.111	2.845
7.053	2.8245
6.996	2.8423
6.94	2.9619
6.885	3.0813
6.83	3.1362
6.777	3.1211
6.724	3.1851
6.672	3.3589
6.621	3.5391
6.571	3.7395
6.521	3.9802
6.472	4.1413
6.424	4.2331
6.377	4.2026
6.33	4.1802
6.284	4.1662
6.238	4.1382
6.194	3.9995
6.15	3.8315
6.106	3.7329
6.063	3.7141
6.021	3.7742
5.979	3.8335
5.938	3.8945
5.898	4.0691
5.858	4.4126
5.818	4.6733
5.779	4.8801
5.741	5.0847
5.703	5.2463
5.666	5.3769
5.629	5.5146
5.592	5.6108
5.556	5.6987
5.521	5.822
5.486	5.9988
5.451	6.2348
5.417	6.4162
5.383	6.5408
5.35	6.6313
5.317	6.7268
5.285	6.8252
5.252	6.9289
5.221	7.0305
5.189	7.1025
5.158	7.1806
5.128	7.2588
5.097	7.3181
5.068	7.3828
5.038	7.4404
5.009	7.4853
4.98	7.4995
4.951	7.5107
4.923	7.4748
4.895	7.3425
4.868	7.1399
4.84	6.8362
4.814	7.0742
4.787	6.6858
4.76	5.4397
4.734	4.3437
4.709	4.5015
4.683	4.6255
4.658	4.9018
4.633	4.4307
4.608	4.0615
4.584	3.9311
4.56	4.2795
4.536	4.3347
4.512	4.3911
4.488	4.3911
4.465	4.6811
4.442	4.7656
4.42	4.9177
4.397	4.959
4.375	4.7881
4.353	4.8909
4.331	5.1868
4.309	5.7165
4.288	5.9119
4.267	6.0332
4.246	6.1885
4.225	6.4023
4.205	6.4961
4.184	6.4953
4.164	6.4482
4.144	6.3989
4.124	6.3804
4.105	6.3906
4.085	6.4143
4.066	6.4419
4.047	6.4521
4.028	6.4912
4.009	6.5193
3.991	6.5373
3.973	6.5552
3.954	6.6023
3.936	6.6567
3.918	6.6953
3.901	6.7256
3.883	6.7639
3.866	6.7358
3.849	6.8305
3.832	6.8398
3.815	6.8628
3.798	6.8684
3.781	6.8569
3.765	6.8474
3.748	6.8166
3.732	6.779
3.716	6.7319
3.7	6.6631
3.685	6.5759
3.669	6.5078
3.653	6.4165
3.638	6.3049
3.623	6.2056
3.608	6.1079
3.593	5.9997
3.578	5.8918
3.563	5.7859
3.548	5.6733
3.534	5.582
3.519	5.4707
3.505	5.364
3.491	5.2932
3.477	5.2034
3.463	5.1086
3.449	5.032
3.435	4.9106
3.422	4.803
3.408	4.7444
3.395	4.6953
3.382	4.6091
3.369	4.5583
3.355	4.4665
3.342	4.3794
3.33	4.3379
3.317	4.2668
3.304	4.1941
3.292	4.167
3.279	4.1335
3.267	4.0774
3.254	4.0625
3.242	4.0212
3.23	3.9907
3.218	3.9731
3.206	3.9517
3.194	3.916
3.182	3.8796
3.171	3.8647
3.159	3.8254
3.148	3.7749
3.136	3.7214
3.125	3.6196
3.114	3.7158
3.102	3.6057
3.091	3.4275
3.08	3.3735
3.069	3.3977
3.058	3.4258
3.048	3.5085
3.037	3.5034
3.026	3.4202
3.016	3.2627
3.005	3.3105
2.995	3.2554
2.985	3.0356
2.974	2.7939
2.964	2.6929
2.954	2.5054
2.944	2.3518
2.934	2.4231
2.924	2.4919
2.914	2.4651
2.904	2.4746
2.895	2.3652
2.885	2.1362
2.875	2.0256
2.866	3.8227
2.856	1.8335
2.847	2.085
2.838	1.9043
2.828	1.2529
2.819	1.6455
2.81	1.9209
2.801	2.2122
2.792	2.5847
2.783	2.9197
2.774	3.2436
2.765	4.2187
2.756	5.1987
2.747	5.7139
2.739	6.6535
2.73	7.7956
2.721	8.7285
2.713	9.9172
2.704	10.8596
2.696	11.5569
2.687	11.5132
2.679	11.469
2.671	11.9636
2.663	12.24
2.654	12.6035
2.646	13.4936
2.638	13.4516
2.63	13.2502
2.622	13.1399
2.614	13.0923
2.606	12.7783
2.599	12.893
2.591	12.3076
2.583	11.9546
2.575	12.1447
2.568	12.1357
2.56	12.073
2.553	12.4756
2.545	12.3977
2.538	11.9575
2.53	11.8908
2.523	10.7981
2.515	9.7378
2.508	9.9421
2.501	11.3916
2.494	12.0019
2.486	12.8745
2.479	12.728
2.472	11.9724
2.465	11.812
2.458	12.6069
2.451	12.937
2.444	12.8899
2.437	12.2422
2.43	11.7641
2.424	12.4072
2.417	12.8857
2.41	13.3398
2.403	13.4668
2.397	13.3418
2.39	13.6548
2.384	14.3764
2.377	15.1831
2.37	15.6704
2.364	15.914
2.358	16.0197
2.351	16.0332
2.345	15.9524
2.338	15.6665
2.332	15.1499
2.326	14.6027
2.32	14.2331
2.313	14.7509
2.307	15.5778
2.301	16.0715
2.295	16.2519
2.289	16.3559
2.283	16.3779
2.277	16.4228
2.271	16.4304
2.265	16.4663
2.259	16.4272
2.253	16.4311
2.247	16.4521
2.241	16.4101
2.236	16.3945
2.23	16.2114
2.224	15.9765
2.218	14.9621
2.213	13.4809
2.207	13.5434
2.201	14.6425
2.196	14.3476
2.19	13.3567
2.185	12.9455
2.179	12.5139
2.174	12.9712
2.168	12.5581
2.163	12.8193
2.157	12.5239
2.152	12.813
2.147	13.2238
2.141	13.3127
2.136	13.5171
2.131	13.6916
2.126	13.9174
2.12	14.3989
2.115	14.8674
2.11	15.163
2.105	15.3593
2.1	15.5422
2.095	15.6767
2.09	15.7981
2.085	15.843
2.079	15.8339
