Name: Richterite Na2Ca(Mg,Fe+2)5Si8O22(OH)2
Type: Mineral
Class: Silicates
Subclass: Inosilicates (chain silicates); (Amphibole Group)
Particle Size: Fine  (Less than 2  Micrometers)
Sample No.: richter.1
Owner: JHU
Wavelength Range: IR
Origin: Wilberforce, Ontario, Canada via the Smithsonian (sample no.
Description: The sample consisted of two large (6.49 and 6.45 g)
Measurement: Transmission
X Units: Wavelength (micrometers)
Y Units: Transmittance (percent)
wavelength	value
25.0442	53.4335
24.3388	46.4139
23.6719	43.16
23.0407	34.165
22.4422	25.3837
21.8741	19.2402
21.334	20.5195
20.8199	27.3749
20.33	36.8515
19.8627	32.4906
19.4163	32.4067
18.9896	38.5722
18.5812	46.6312
18.19	50.1605
17.815	63.516
17.4551	71.2264
17.1094	75.9275
16.7772	79.5369
16.4576	80.6609
16.15	80.6492
15.8537	81.2073
15.568	80.0516
15.2925	75.1419
15.0265	65.4354
14.7697	72.8416
14.5214	77.7937
14.2814	78.618
14.0492	77.4842
13.8244	76.6307
13.6067	72.3096
13.3957	68.7928
13.1912	76.1846
12.9929	82.9317
12.8004	83.6834
12.6135	83.0166
12.432	81.1612
12.2557	79.0486
12.0843	76.0704
11.9176	71.334
11.7555	65.8294
11.5977	61.8587
11.444	56.4991
11.2944	48.5746
11.1487	41.1586
11.0067	33.4904
10.8682	28.2424
10.7332	29.214
10.6015	26.9504
10.473	23.0873
10.3476	22.7861
10.2251	21.9467
10.1056	22.6623
9.98873	27.6855
9.87458	32.1088
9.763	35.7758
9.65392	37.6962
9.54724	35.8727
9.44291	32.0888
9.34082	30.9621
9.24091	31.9482
9.14312	35.6562
9.04739	42.0385
8.95363	47.1591
8.8618	49.537
8.77183	47.014
8.68368	55.9435
8.59727	62.8878
8.51257	66.7801
8.42951	69.4515
8.34807	71.7298
8.26819	73.6946
8.18981	75.4385
8.11292	76.8777
8.03745	78.0994
7.96337	79.4656
7.89064	80.513
7.81924	81.326
7.74911	82.1477
7.68023	82.8001
7.61256	83.5618
7.54608	84.2122
7.48074	84.7469
7.41653	85.2547
7.35341	85.7298
7.29136	86.2649
7.23034	86.6262
7.17033	87.3958
7.11132	87.8587
7.05327	88.0716
6.99616	88.4395
6.93996	88.8943
6.88467	89.1072
6.83024	89.322
6.77667	89.4656
6.72393	89.6961
6.67201	90.0403
6.62089	90.3294
6.57054	90.6184
6.52095	90.6926
6.4721	90.8679
6.42398	90.9514
6.37657	90.8699
6.32986	90.7908
6.28382	90.7317
6.23845	90.4851
6.19373	89.8489
6.14965	89.3172
6.10619	89.5105
6.06334	90.043
6.02109	91.5857
5.97942	92.5491
5.93832	92.4807
5.89778	92.367
5.8578	92.3845
5.81835	92.7141
5.77943	92.8215
5.74103	92.8997
5.70314	92.991
5.66574	92.9631
5.62883	93.0759
5.5924	93.1775
5.55644	93.3626
5.52093	93.3586
5.48588	93.4758
5.45127	93.6567
5.41709	93.8162
5.38334	93.8503
5.35	93.9919
5.31708	94.0803
5.28456	94.1394
5.25243	94.1868
5.2207	94.1907
5.18934	94.2585
5.15836	94.2297
5.12775	94.2004
5.09749	94.1509
5.0676	94.0984
5.03805	94.1956
5.00884	94.2144
4.97998	94.2166
4.95144	94.3164
4.92322	94.3538
4.89533	94.4102
4.86775	94.4202
4.84048	94.4644
4.81351	94.5352
4.78684	94.6648
4.76047	94.6716
4.73439	94.6914
4.70859	94.7151
4.68306	94.7686
4.65782	94.8469
4.63284	94.8591
4.60814	95.0625
4.58369	94.9866
4.5595	94.9695
4.53557	94.9834
4.51188	95.0037
4.48845	95.0413
4.46525	95.0315
4.44229	95.0081
4.41957	95.0134
4.39708	95.0146
4.37481	95.0496
4.35277	95.0505
4.33096	95.0574
4.30935	94.9841
4.28797	95.0242
4.26679	95.0039
4.24583	95.0491
4.22506	95.0017
4.2045	94.9768
4.18414	94.9343
4.16398	94.947
4.14401	94.9158
4.12423	95.0071
4.10464	94.9485
4.08523	94.9841
4.066	94.8953
4.04696	94.9294
4.02809	94.9031
4.0094	94.9001
3.99088	94.8586
3.97253	94.8398
3.95435	94.8066
3.93634	94.8626
3.91848	94.8535
3.90079	94.7878
3.88326	94.781
3.86589	94.6953
3.84867	94.7646
3.8316	94.6843
3.81468	94.7246
3.79791	94.7551
3.78129	94.6599
3.76482	94.6895
3.74848	94.5388
3.73229	94.5784
3.71624	94.5813
3.70032	94.4805
3.68454	94.4285
3.6689	94.3799
3.65338	94.3416
3.638	94.4189
3.62275	94.3259
3.60762	94.2939
3.59262	94.3125
3.57775	94.2158
3.56299	94.2043
3.54836	94.2078
3.53385	94.1199
3.51945	94.1348
3.50517	94.2617
3.49101	94.1279
3.47696	94.0095
3.46303	94.0012
3.4492	93.9622
3.43549	94.0046
3.42188	94.0779
3.40838	93.8633
3.39499	93.7852
3.38171	93.7344
3.36852	93.8223
3.35544	93.5349
3.34246	93.5544
3.32958	93.5557
3.3168	93.5232
3.30411	93.5078
3.29153	93.3782
3.27903	93.4085
3.26664	93.3171
3.25433	93.3254
3.24212	93.3381
3.23	93.2918
3.21797	93.3484
3.20603	93.1995
3.19418	93.0564
3.18241	93.031
3.17074	92.908
3.15914	92.7698
3.14763	92.6941
3.13621	92.5554
3.12487	92.2869
3.11361	92.1526
3.10243	91.8772
3.09133	91.5925
3.0803	91.3733
3.06936	91.1878
3.0585	90.9646
3.04771	90.8093
3.037	90.5589
3.02636	90.4378
3.0158	89.9714
3.00531	89.4578
2.99489	88.9436
2.98454	88.2381
2.97427	87.2854
2.96407	86.367
2.95393	85.6629
2.94387	84.9978
2.93387	84.3719
2.92394	84.033
2.91408	83.7146
2.90429	83.8123
2.89456	84.0511
2.88489	84.326
2.87529	84.5486
2.86576	84.8474
2.85628	85.2293
2.84687	85.6287
2.83752	86.2146
2.82823	86.7634
2.81901	87.5037
2.80984	87.8845
2.80073	88.4021
2.79168	88.8616
2.78269	89.3621
2.77376	89.9221
2.76488	90.4041
2.75606	91.0842
2.7473	91.5213
2.73859	91.6487
2.72994	91.3635
2.72134	90.1721
2.7128	91.428
2.70431	91.0725
2.69587	91.1331
2.68748	92.1448
2.67915	92.5549
2.67087	92.8479
2.66264	92.5662
2.65446	92.6677
2.64633	92.7127
2.63825	92.5476
2.63021	92.783
2.62223	92.5115
2.6143	92.4666
2.60641	92.6375
2.59857	92.4519
2.59078	92.6375
2.58304	92.6394
2.57534	92.3621
2.56768	92.3982
2.56008	92.573
2.55251	92.532
2.54499	92.4255
2.53752	92.5798
2.53009	92.3484
2.5227	92.2791
2.51536	92.3533
2.50806	92.2947
2.5008	92.3132
2.49358	92.4939
2.4864	92.4666
2.47927	92.2322
2.47218	92.4841
2.46512	92.363
2.45811	92.4343
2.45114	92.5515
2.4442	92.2
2.43731	92.3689
2.43045	92.3562
2.42363	92.2849
2.41685	92.4666
2.41011	92.5349
2.40341	92.4255
2.39674	92.2195
2.39011	92.3845
2.38352	92.3064
2.37696	92.1609
2.37044	92.1795
2.36395	92.1609
2.35751	92.2224
2.35109	92.3015
2.34471	92.1375
2.33836	92.2263
2.33205	92.1033
2.32578	91.9968
2.31953	92.4695
2.31332	92.031
2.30714	92.2117
2.301	91.9646
2.29489	92.2459
2.28881	92.3943
2.28276	92.0076
2.27675	91.9216
2.27076	92.1755
2.26481	92.2361
2.25889	92.1755
2.253	92.2654
2.24714	92.2478
2.24131	92.033
2.23551	92.0037
2.22974	92.033
2.224	92.0408
2.21829	91.8123
2.21261	92.0759
2.20696	91.9959
2.20134	91.6013
2.19574	92.0525
2.19018	92.1873
2.18464	92.115
2.17913	91.8923
2.17365	91.8142
2.16819	91.8357
2.16277	91.906
2.15737	92.158
2.15199	91.5623
2.14665	91.8845
2.14133	91.9314
2.13603	91.908
2.13077	91.9861
2.12552	91.8084
2.12031	91.7693
2.11512	91.8201
2.10995	91.8377
2.10481	91.6834
2.0997	92.0173
2.09461	92.1834
2.08954	91.7771
2.0845	91.9529
2.07948	91.9627
