Name: ALHA 77214
Type: Stony Meteorites
Class: Ordinary Chondrite
Subclass: L3
Particle Size: 0-75 micrometers
Sample No.: ALHA 77214
Owner: JHU
Origin: Meteorite found in Antarctica in 1977.  Smithsonian sample No. USNM
Description: None.
Measurement: Bidirectional reflectance
X Units: Wavelength (micrometers)
Y Units: Reflectance (percent)
wavelength	value
25.044	0.8909
24.339	1.0632
23.672	1.0308
23.041	0.9011
22.442	0.8416
21.874	0.853
21.334	0.8545
20.82	0.8948
20.33	0.9192
19.863	0.9932
19.416	1.0291
18.99	0.9661
18.581	0.8748
18.19	0.8154
17.815	0.7056
17.455	0.7156
17.109	0.7078
16.777	0.7097
16.458	0.6726
16.15	0.6479
15.854	0.6113
15.568	0.5793
15.292	0.5496
15.027	0.6296
14.77	0.6709
14.521	0.7383
14.281	0.8376
14.049	0.9177
13.824	0.8892
13.607	0.9509
13.396	1.0715
13.191	1.2117
12.993	1.2915
12.8	1.3354
12.614	1.3264
12.432	1.3291
12.256	1.292
12.084	1.1335
11.918	0.9617
11.755	0.9741
11.598	1.0029
11.444	1.0884
11.294	1.1047
11.149	1.0691
11.007	1.051
10.868	1.0923
10.733	1.1162
10.602	1.0764
10.473	1.0139
10.348	0.947
10.225	0.9014
10.106	0.8621
9.9887	0.8555
9.8746	0.8455
9.763	0.8213
9.6539	0.8394
9.5472	0.8926
9.4429	0.9219
9.3408	0.9099
9.2409	0.8772
9.1431	0.8806
9.0474	0.8813
8.9536	0.8611
8.8618	0.8335
8.7718	0.8005
8.6837	0.7952
8.5973	0.8264
8.5126	0.8755
8.4295	0.9563
8.3481	1.073
8.2682	1.2039
8.1898	1.3442
8.1129	1.4744
8.0374	1.5923
7.9634	1.7002
7.8906	1.7866
7.8192	1.8586
7.7491	1.904
7.6802	1.9355
7.6126	1.9414
7.5461	1.947
7.4807	1.9363
7.4165	1.9309
7.3534	1.969
7.2914	2.0312
7.2303	2.0798
7.1703	2.1274
7.1113	2.1768
7.0533	2.231
6.9962	2.28
6.94	2.3306
6.8847	2.3581
6.8302	2.3796
6.7767	2.4033
6.7239	2.4145
6.672	2.4128
6.6209	2.417
6.5705	2.4353
6.5209	2.4558
6.4721	2.4675
6.424	2.4768
6.3766	2.4849
6.3299	2.4924
6.2838	2.5178
6.2385	2.5437
6.1937	2.5561
6.1496	2.5554
6.1062	2.5437
6.0633	2.5185
6.0211	2.5166
5.9794	2.5842
5.9383	2.6738
5.8978	2.7432
5.8578	2.79
5.8184	2.8252
5.7794	2.8452
5.741	2.8281
5.7031	2.7964
5.6657	2.7742
5.6288	2.7922
5.5924	2.8455
5.5564	2.8989
5.5209	2.9277
5.4859	2.9348
5.4513	2.9526
5.4171	2.9878
5.3833	3.02
5.35	3.05
5.3171	3.0591
5.2846	3.061
5.2524	3.0657
5.2207	3.0725
5.1893	3.0688
5.1584	3.0693
5.1277	3.0808
5.0975	3.1025
5.0676	3.126
5.038	3.1504
5.0088	3.1689
4.98	3.1809
4.9514	3.198
4.9232	3.2207
4.8953	3.2429
4.8678	3.2685
4.8405	3.2871
4.8135	3.3113
4.7868	3.3328
4.7605	3.355
4.7344	3.3796
4.7086	3.3962
4.6831	3.4116
4.6578	3.4333
4.6328	3.4514
4.6081	3.4719
4.5837	3.4895
4.5595	3.5034
4.5356	3.5129
4.5119	3.5237
4.4884	3.5281
4.4652	3.5327
4.4423	3.532
4.4196	3.5366
4.3971	3.5359
4.3748	3.5381
4.3528	3.5376
4.331	3.5315
4.3094	3.5308
4.288	3.5327
4.2668	3.5293
4.2458	3.532
4.2251	3.5354
4.2045	3.531
4.1841	3.5293
4.164	3.529
4.144	3.5227
4.1242	3.521
4.1046	3.5205
4.0852	3.5139
4.066	3.5176
4.047	3.5071
4.0281	3.5071
4.0094	3.4997
3.9909	3.4897
3.9725	3.4817
3.9544	3.4746
3.9363	3.4663
3.9185	3.4536
3.9008	3.4394
3.8833	3.4209
3.8659	3.407
3.8487	3.3933
3.8316	3.3791
3.8147	3.3606
3.7979	3.3411
3.7813	3.3242
3.7648	3.3052
3.7485	3.2908
3.7323	3.2681
3.7162	3.2463
3.7003	3.2263
3.6845	3.2051
3.6689	3.1865
3.6534	3.1626
3.638	3.1433
3.6227	3.1233
3.6076	3.1001
3.5926	3.0749
3.5777	3.0535
3.563	3.0286
3.5484	3.0012
3.5338	2.9766
3.5195	2.9453
3.5052	2.907
3.491	2.885
3.477	2.8662
3.463	2.8437
3.4492	2.8113
3.4355	2.781
3.4219	2.7388
3.4084	2.7207
3.395	2.7036
3.3817	2.6772
3.3685	2.6553
3.3554	2.6318
3.3425	2.6023
3.3296	2.5808
3.3168	2.5518
3.3041	2.5195
3.2915	2.4866
3.279	2.4568
3.2666	2.4231
3.2543	2.3921
3.2421	2.3608
3.23	2.3291
3.218	2.2961
3.206	2.2703
3.1942	2.2422
3.1824	2.2124
3.1707	2.1831
3.1591	2.1609
3.1476	2.1416
3.1362	2.1267
3.1249	2.1062
3.1136	2.0918
3.1024	2.0764
3.0913	2.0681
3.0803	2.0681
3.0694	2.0539
3.0585	2.0559
3.0477	2.051
3.037	2.0525
3.0264	2.0437
3.0158	2.0493
3.0053	2.0447
2.9949	2.0435
2.9845	2.041
2.9743	2.0461
2.9641	2.0444
2.9539	2.0566
2.9439	2.0574
2.9339	2.0684
2.9239	2.0737
2.9141	2.0869
2.9043	2.0996
2.8946	2.1221
2.8849	2.1221
2.8753	2.1455
2.8658	2.1694
2.8563	2.199
2.8469	2.2283
2.8375	2.2739
2.8282	2.3127
2.819	2.3638
2.8098	2.4126
2.8007	2.477
2.7917	2.5422
2.7827	2.6125
2.7738	2.6912
2.7649	2.7839
2.7561	2.866
2.7473	2.9807
2.7386	3.0798
2.7299	3.1665
2.7213	3.2663
2.7128	3.3413
2.7043	3.3967
2.6959	3.4358
2.6875	3.4783
2.6791	3.4941
2.6709	3.5273
2.6626	3.542
2.6545	3.5373
2.6463	3.5515
2.6382	3.5461
2.6302	3.553
2.6222	3.5513
2.6143	3.5513
2.6064	3.5474
2.5986	3.5508
2.5908	3.5574
2.583	3.5471
2.5753	3.5466
2.5677	3.5452
2.5601	3.5327
2.5525	3.532
2.545	3.5215
2.5375	3.5181
2.5301	3.5149
2.5227	3.5054
2.5154	3.5022
2.5081	3.4954
2.5008	3.4812
2.4936	3.4788
2.4864	3.4705
2.4793	3.4556
2.4722	3.4529
2.4651	3.4534
2.4581	3.4531
2.4511	3.439
2.4442	3.4399
2.4373	3.4429
2.4305	3.4326
2.4236	3.4402
2.4169	3.4272
2.4101	3.4267
2.4034	3.4336
2.3967	3.4167
2.3901	3.4197
2.3835	3.4131
2.377	3.4184
2.3704	3.3957
2.364	3.3943
2.3575	3.3967
2.3511	3.3816
2.3447	3.3772
2.3384	3.3733
2.3321	3.3611
2.3258	3.3572
2.3195	3.3523
2.3133	3.3437
2.3071	3.3462
2.301	3.3511
2.2949	3.3389
2.2888	3.3354
2.2828	3.3342
2.2767	3.3279
2.2708	3.3215
2.2648	3.3288
2.2589	3.3293
2.253	3.3262
2.2471	3.3247
2.2413	3.3379
2.2355	3.3271
2.2297	3.322
2.224	3.322
2.2183	3.3186
2.2126	3.3096
2.207	3.3093
2.2013	3.3227
2.1957	3.3113
2.1902	3.3074
2.1846	3.2954
2.1791	3.2974
2.1736	3.2983
2.1682	3.2732
2.1628	3.2983
2.1574	3.2832
2.152	3.3052
2.1466	3.311
2.1413	3.2913
2.136	3.2866
2.1308	3.2812
2.1255	3.2827
2.1203	3.3118
2.1151	3.2888
2.11	3.2998
2.1048	3.2993
2.0997	3.3057
2.0946	3.2827
2.0895	3.2849
2.0845	3.2895
2.0795	3.2683
