Name: Diorite
Type: Rocks
Class: Igneous
Subclass: Intermediate
Particle Size: Solid
Sample No.: Diorite.H1
Owner: JHU
Origin: Near Azusa, Los Angeles County, California, via Ward's Scientific
Description: A dark gray, medium-grained rock composed of plagioclase, a
Measurement: Directional (10 degree) hemispherical reflectance
X Units: Wavelength (micrometers)
Y Units: Reflectance (percent)
wavelength	value
14.0112	3.5644
13.7147	2.0346
13.4304	3.1961
13.1577	3.246
12.8959	3.241
12.6443	3.2649
12.4023	3.5093
12.1694	4.1416
11.945	4.8241
11.7289	5.4302
11.5203	5.9083
11.3191	6.5011
11.1248	7.3966
10.937	8.2664
10.7555	9.1516
10.5799	10.3235
10.4099	11.2807
10.2454	12.1218
10.0859	13.1906
9.9313	13.7817
9.7814	12.9327
9.636	12.3906
9.4948	10.8372
9.3577	8.6894
9.2245	7.3385
9.095	6.9516
8.9691	6.9169
8.8467	7.3008
8.7275	7.9431
8.6116	6.9018
8.4986	6.3169
8.3886	6.066
8.2814	4.4571
8.1769	2.0171
8.075	1.0125
7.9756	0.7556
7.8786	0.7127
7.784	0.7561
7.6916	0.8412
7.6014	0.9283
7.5133	1.008
7.4272	1.1018
7.343	1.196
7.2607	1.2902
7.1803	1.3767
7.1016	1.5018
7.0246	1.5933
6.9493	1.6711
6.8755	1.7213
6.8034	1.8169
6.7327	1.9
6.6634	1.9774
6.5956	2.0093
6.5292	2.0538
6.464	2.0818
6.4002	2.0667
6.3376	2.0847
6.2762	2.0958
6.216	2.1216
6.157	2.141
6.099	2.1696
6.0421	2.2008
5.9863	2.2496
5.9315	2.3011
5.8777	2.3761
5.8249	2.4403
5.773	2.5094
5.722	2.5764
5.6719	2.6339
5.6227	2.7375
5.5744	2.809
5.5268	2.9234
5.4801	2.9948
5.4341	3.0977
5.3889	3.1807
5.3445	3.2314
5.3008	3.3333
5.2578	3.4549
5.2154	3.5641
5.1738	3.6522
5.1328	3.7308
5.0925	3.8716
5.0528	3.9703
5.0137	4.1098
4.9752	4.2434
4.9373	4.4171
4.9	4.5424
4.8632	4.7205
4.827	4.8652
4.7913	5.0386
4.7561	5.2397
4.7215	5.4392
4.6873	5.658
4.6536	5.973
4.6205	6.2561
4.5877	6.5555
4.5555	6.8958
4.5237	7.1594
4.4923	7.4198
4.4614	7.7074
4.4309	8.0156
4.4008	8.3857
4.3711	8.7361
4.3418	9.074
4.3129	9.402
4.2844	9.6961
4.2563	9.9994
4.2285	10.2691
4.2011	10.5391
4.174	10.7468
4.1473	10.9696
4.1209	11.1616
4.0949	11.3435
4.0692	11.4919
4.0438	11.6967
4.0187	11.8259
3.994	11.9867
3.9695	12.1553
3.9453	12.3468
3.9214	12.5179
3.8979	12.6539
3.8746	12.7654
3.8515	12.8908
3.8288	12.9529
3.8063	13.0106
3.7841	13.0649
3.7621	13.0837
3.7404	13.0589
3.7189	13.0425
3.6977	13.0184
3.6767	12.9441
3.656	12.8737
3.6355	12.7863
3.6152	12.7005
3.5951	12.5104
3.5753	12.375
3.5557	12.1989
3.5363	11.9779
3.5171	11.512
3.4981	10.9959
3.4793	11.0283
3.4607	10.8714
3.4423	10.4859
3.4241	9.8062
3.4061	9.7854
3.3883	9.8348
3.3707	9.7851
3.3533	9.8329
3.336	9.7654
3.3189	9.6206
3.302	9.3836
3.2853	9.1521
3.2687	8.9384
3.2523	8.685
3.2361	8.46
3.22	8.268
3.204	7.9961
3.1883	7.7676
3.1727	7.5623
3.1572	7.3587
3.1419	7.1081
3.1268	6.8852
3.1117	6.7425
3.0969	6.5925
3.0821	6.4415
3.0675	6.3257
3.0531	6.2093
3.0388	6.1387
3.0246	6.0319
3.0105	5.9763
2.9966	5.8512
2.9828	5.787
2.9692	5.6868
2.9556	5.6672
2.9422	5.6137
2.9289	5.6273
2.9157	5.7016
2.9027	5.6955
2.8897	5.7543
2.8769	5.685
2.8642	5.7312
2.8516	5.8038
2.8391	5.8873
2.8267	5.8052
2.8144	5.7694
2.8022	5.8228
2.7902	5.733
2.7782	5.3213
2.7664	4.9624
2.7546	4.9195
2.7429	5.1593
2.7314	5.4541
2.7199	6.0204
2.7085	6.9459
2.6973	7.9987
2.6861	10.054
2.675	13.9699
2.664	14.8863
2.6531	15.1272
2.6423	15.4683
2.6315	15.727
2.6209	15.7301
2.6103	15.8821
2.5999	16.0643
2.5895	16.1078
2.5792	16.1768
2.569	16.1953
2.5588	16.2205
2.5487	16.3195
2.5388	16.3652
2.5289	16.2872
2.519	16.2829
2.5093	16.2002
2.4996	16.2325
2.49	16.2449
2.4805	16.2428
2.471	16.3188
2.4616	16.3788
2.4523	16.3687
2.4431	16.4735
2.4339	16.383
2.4248	16.1805
2.4157	15.8623
2.4068	15.3968
2.3979	14.9503
2.389	14.8727
2.3802	15.1548
2.3715	15.573
2.3629	15.5866
2.3543	15.1649
2.3458	14.6984
2.3373	14.4035
2.3289	14.2947
2.3206	14.4686
2.3123	14.8776
2.3041	15.3659
2.2959	16.0052
2.2878	17.1007
2.2798	18.2723
2.2718	18.8727
2.2638	18.9276
2.2559	18.48
2.2481	18.5847
2.2403	19.4774
2.2326	20.1348
2.225	20.3894
2.2173	20.4054
2.2098	20.3392
2.2023	20.136
2.1948	20.1888
2.1874	20.5033
2.18	20.816
2.1727	20.9747
2.1655	21.081
2.1583	21.1427
2.1511	21.1732
2.144	21.153
2.1369	21.1621
2.1299	21.1851
2.1229	21.1621
2.116	21.1429
2.1091	21.235
2.1023	21.2228
2.0955	21.3776
2.0887	21.5093
2.082	21.4839
2.06	21.7598
2.028	21.7461
1.996	21.3194
1.964	20.5874
1.932	20.1043
1.9	19.1714
1.868	20.5458
1.836	20.3133
1.804	20.2298
1.772	19.493
1.74	18.8662
1.708	18.4888
1.676	17.8672
1.644	17.322
1.612	16.7527
1.58	16.2891
1.548	15.6423
1.516	14.819
1.484	14.4209
1.452	13.6939
1.42	12.8944
1.388	11.8241
1.356	12.1604
1.324	11.4865
1.292	10.9448
1.26	10.518
1.228	10.1785
1.196	9.7087
1.164	9.5445
1.132	9.2331
1.1	9.1942
1.068	9.1072
1.036	9.2417
1.004	9.2292
0.972	9.3489
0.94	9.2235
0.908	9.3641
0.876	9.6407
0.844	9.5543
0.812	9.8856
0.795	9.8536
0.787	9.8014
0.779	9.8402
0.771	9.6349
0.763	10.0879
0.755	10.1881
0.747	9.6368
0.739	9.8072
0.731	10.1796
0.723	10.0095
0.715	10.0054
0.707	10.1173
0.699	10.1421
0.691	10.1963
0.683	10.5738
0.675	10.3167
0.667	10.4922
0.659	10.4962
0.651	10.4185
0.643	10.748
0.635	10.7622
0.627	10.7565
0.619	10.8743
0.611	10.8469
0.603	10.8125
0.595	11.0264
0.587	11.2986
0.579	11.2433
0.571	11.1811
0.563	11.2831
0.555	11.3879
0.547	11.386
0.539	11.6825
0.531	11.5601
0.523	11.7057
0.515	11.6979
0.507	11.6166
0.499	11.2279
0.491	11.4717
0.483	11.563
0.475	11.2753
0.467	11.4944
0.459	10.8229
0.451	10.9938
0.443	10.6766
0.435	10.5138
0.427	10.1177
0.419	9.7776
0.411	9.5174
0.403	9.6283
