Name: Beryl Be3Al2Si6O18
Type: Mineral
Class: Silicates
Subclass: Cyclosilicates (Ring Silicates)
Particle Size: Fine (less than 2 Micrometers)
Sample No.: beryl.2
Owner: JHU
Wavelength Range: IR
Origin: Smithsonian NMNH 134700Sample from Palermo Mine, North
Description: Hand sample was pale green to white in color and
Measurement: Transmission
X Units: Wavelength (micrometers)
Y Units: Transmittance (percent)
wavelength	value
25.044	82.5545
24.339	80.0154
23.672	73.8123
23.041	55.9061
22.442	44.5429
21.874	60.1971
21.334	71.9842
20.82	68.5272
20.33	50.0897
19.863	51.076
19.416	47.5194
18.99	31.9257
18.581	39.1913
18.19	56.3788
17.815	71.2147
17.455	71.6834
17.109	66.4891
16.777	49.1776
16.458	70.492
16.15	76.699
15.854	78.1268
15.568	76.8396
15.292	68.5086
15.027	67.6434
14.77	46.5985
14.521	46.579
14.281	62.3504
14.049	69.6932
13.824	69.1566
13.607	59.6913
13.396	50.9901
13.191	61.1444
12.993	71.0042
12.8	71.7693
12.614	66.8924
12.432	54.9842
12.256	52.0643
12.084	61.2811
11.918	70.4671
11.755	75.3636
11.598	76.5643
11.444	75.2244
11.294	71.9529
11.149	67.9515
11.007	62.7127
10.868	53.6078
10.733	40.5043
10.602	27.4745
10.473	17.1738
10.348	15.0688
10.225	20.8227
10.106	26.3642
9.989	31.9574
9.875	31.7021
9.763	31.9316
9.654	36.5185
9.547	41.7069
9.443	43.9325
9.341	46.0917
9.241	50.1468
9.143	54.3675
9.047	56.7948
8.954	57.8924
8.862	56.4989
8.772	52.4554
8.684	50.4779
8.597	48.9759
8.513	41.7147
8.43	34.8358
8.348	25.7287
8.268	26.7382
8.19	34.2792
8.113	45.3202
8.037	58.3758
7.963	69.0938
7.891	77.1082
7.819	83.4297
7.749	87.2686
7.68	89.1494
7.613	90.3079
7.546	91.1065
7.481	91.8213
7.417	92.4417
7.353	92.8584
7.291	93.1082
7.23	93.1096
7.17	92.6387
7.111	92.8242
7.053	93.9316
6.996	94.2998
6.94	94.4426
6.885	94.5908
6.83	94.8674
6.777	95.2568
6.724	95.7139
6.672	95.9902
6.621	96.1494
6.571	96.335
6.521	96.3174
6.472	95.5801
6.424	95.8699
6.377	95.8318
6.33	95.4475
6.284	94.8709
6.238	93.3142
6.194	92.6492
6.15	90.5789
6.106	90.6228
6.063	92.7559
6.021	94.1338
5.979	94.9851
5.938	96.0967
5.898	96.8066
5.858	97.0828
5.818	97.3953
5.779	97.5144
5.741	97.8088
5.703	98.0041
5.666	98.0759
5.629	98.1738
5.592	98.165
5.556	98.2888
5.521	98.3086
5.486	98.3425
5.451	98.532
5.417	98.6335
5.383	98.6335
5.35	98.7117
5.317	98.8008
5.285	98.7732
5.252	98.7068
5.221	98.6619
5.189	98.4892
5.158	98.5215
5.128	98.572
5.097	98.6501
5.068	98.8249
5.038	98.9133
5.009	98.9768
4.98	99.0642
4.951	99.2297
4.923	99.2185
4.895	99.322
4.868	99.3953
4.84	99.4402
4.814	99.5515
4.787	99.5173
4.76	99.6033
4.734	99.7273
4.709	99.6863
4.683	99.7322
4.658	99.7883
4.633	99.8064
4.608	99.8386
4.584	99.8977
4.56	99.8674
4.536	99.9236
4.512	99.8967
4.488	100
4.465	99.9123
4.442	99.9587
4.42	100.028
4.397	100.037
4.375	100.156
4.353	100.097
4.331	100.164
4.309	100.152
4.288	100.184
4.267	100.213
4.246	100.224
4.225	100.308
4.205	100.307
4.184	100.283
4.164	100.348
4.144	100.406
4.124	100.33
4.105	100.41
4.085	100.395
4.066	100.36
4.047	100.424
4.028	100.408
4.009	100.38
3.991	100.341
3.973	100.416
3.954	100.375
3.936	100.362
3.918	100.495
3.901	100.406
3.883	100.369
3.866	100.348
3.849	100.416
3.832	100.412
3.815	100.399
3.798	100.387
3.781	100.449
3.765	100.354
3.748	100.399
3.732	100.252
3.716	100.236
3.7	100.143
3.685	100.205
3.669	100.071
3.653	100.045
3.638	100.014
3.623	99.9123
3.608	99.7458
3.593	99.7991
3.578	99.7073
3.563	99.6462
3.548	99.5329
3.534	99.3757
3.519	99.2287
3.505	98.8943
3.491	98.9358
3.477	98.7209
3.463	98.6467
3.449	98.512
3.435	98.1853
3.422	97.8982
3.408	97.8181
3.395	97.8103
3.382	97.6072
3.369	97.6623
3.355	97.5081
3.342	97.3357
3.33	97.1189
3.317	96.9734
3.304	96.7737
3.292	96.6604
3.279	96.5232
3.267	96.24
3.254	95.9207
3.242	95.6433
3.23	95.1755
3.218	94.9011
3.206	94.5847
3.194	94.3298
3.182	94.1003
3.171	93.9041
3.159	93.6101
3.148	93.2888
3.136	93.1277
3.125	92.8543
3.114	92.5906
3.102	92.4802
3.091	92.1062
3.08	92.0427
3.069	91.8826
3.058	91.5994
3.048	91.572
3.037	91.197
3.026	90.8797
3.016	90.4334
3.005	89.7908
2.995	89.0672
2.985	88.3845
2.974	87.2771
2.964	86.0408
2.954	85.2156
2.944	84.5017
2.934	84.242
2.924	83.8172
2.914	83.7469
2.904	84.1072
2.895	84.6111
2.885	85.3826
2.875	86.2302
2.866	87.0398
2.856	87.9412
2.847	88.6287
2.838	89.1336
2.828	89.9304
2.819	90.447
2.81	91.1531
2.801	92.0984
2.792	92.8904
2.783	92.113
2.774	94.6404
2.765	96.5085
2.756	97.3249
2.747	98.1921
2.739	98.6335
2.73	99.2898
2.721	100.351
2.713	100.731
2.704	98.2078
2.696	101.125
2.687	101.864
2.679	102.156
2.671	102.512
2.663	102.531
2.654	102.617
2.646	102.75
2.638	102.824
2.63	102.859
2.622	103.006
2.614	102.988
2.606	102.951
2.599	102.986
2.591	103.273
2.583	103.273
2.575	103.08
2.568	103.07
2.56	103.26
2.553	103.26
2.545	103.308
2.538	103.556
2.53	103.267
2.523	103.353
2.515	103.375
2.508	103.687
2.501	103.769
2.494	103.611
2.486	103.726
2.479	103.861
2.472	103.64
2.465	103.869
2.458	104.103
2.451	104.058
2.444	104.01
2.437	104.257
2.43	104.054
2.424	103.996
2.417	104.035
2.41	104.26
2.403	104.203
2.397	104.219
2.39	104.142
2.384	104.344
2.377	104.689
2.37	104.424
2.364	104.492
2.358	104.463
2.351	104.51
2.345	104.507
2.338	104.72
2.332	104.838
2.326	104.687
2.32	104.82
2.313	104.781
2.307	104.9
2.301	104.885
2.295	105.015
2.289	105.291
2.283	104.882
2.277	105.181
2.271	104.996
2.265	105.097
2.259	105.203
2.253	105.219
2.247	105.129
2.241	105.394
2.236	105.457
2.23	105.257
2.224	105.488
2.218	105.507
2.213	105.488
2.207	105.648
2.201	105.863
2.196	105.918
2.19	105.785
2.185	105.707
2.179	105.609
2.174	105.695
2.168	105.918
2.163	106.207
2.157	105.949
2.152	106.156
2.147	106.195
2.141	106.16
2.136	106.472
2.131	106.199
2.126	106.523
2.12	106.492
2.115	106.613
2.11	106.367
2.105	106.632
2.1	106.66
2.095	106.523
2.09	106.754
2.085	106.859
2.079	106.679
