Name: Sanidine (K,Na)Al3O8
Type: Mineral
Class: Silicates
Subclass: Tectosilicates (Feldspar Group)
Particle Size: Solid (cleavage face)
Sample No.: sanidine.1
Owner: JHU
Wavelength Range: IR
Origin: Volkesfeld bei Kempenick, Eifel, Rheinland, Germany via Dave
Description: The hand sample was a large (56.16 g) fragment of what
Measurement: Bidirectional reflectance
X Units: Wavelength (micrometers)
Y Units: Reflectance (percent)
wavelength	value
25.0442	22.1835
24.3388	25.4218
23.6719	28.2128
23.0407	32.9257
22.4422	32.2782
21.8741	23.0981
21.334	19.2543
20.8199	15.1782
20.33	11.2163
19.8627	12.7334
19.4163	14.1054
18.9896	15.4914
18.5812	17.8027
18.19	21.2246
17.815	19.5434
17.4551	21.4316
17.1094	25.767
16.7772	30.9726
16.4576	30.4709
16.15	23.5278
15.8537	14.936
15.568	14.1071
15.2925	9.3779
15.0265	9.6855
14.7697	11.1455
14.5214	12.3442
14.2814	13.4485
14.0492	14.1037
13.8244	14.3989
13.6067	13.9878
13.3957	13.5991
13.1912	13.6123
12.9929	13.8159
12.8004	13.4087
12.6135	12.2182
12.432	11.6494
12.2557	12.4966
12.0843	13.2661
11.9176	13.8642
11.7555	14.4043
11.5977	14.9013
11.444	15.3808
11.2944	15.8969
11.1487	16.5024
11.0067	17.1962
10.8682	17.9943
10.7332	19.0456
10.6015	20.35
10.473	22.1372
10.3476	24.6728
10.2251	27.624
10.1056	30.9985
9.98873	34.9848
9.87458	38.4936
9.763	41.244
9.65392	44.2355
9.54724	46.9857
9.44291	47.1364
9.34082	39.1574
9.24091	36.3712
9.14312	36.3236
9.04739	37.8012
8.95363	39.4936
8.8618	42.4848
8.77183	46.6224
8.68368	49.4474
8.59727	49.1053
8.51257	47.9625
8.42951	48.5997
8.34807	47.9396
8.26819	43.3351
8.18981	36.4433
8.11292	28.8884
8.03745	20.6887
7.96337	12.3916
7.89064	5.8616
7.81924	2.188
7.74911	1.5559
7.68023	2.2917
7.61256	3.0474
7.54608	3.688
7.48074	4.2275
7.41653	4.689
7.35341	5.0784
7.29136	5.4089
7.23034	5.7024
7.17033	5.9885
7.11132	6.2339
7.05327	6.4499
6.99616	6.6306
6.93996	6.8125
6.88467	6.9773
6.83024	7.093
6.77667	7.2241
6.72393	7.3332
6.67201	7.4346
6.62089	7.5534
6.57054	7.6308
6.52095	7.7488
6.4721	7.8428
6.42398	7.9189
6.37657	8.0381
6.32986	8.1279
6.28382	8.1953
6.23845	8.258
6.19373	8.3015
6.14965	8.3857
6.10619	8.4201
6.06334	8.4878
6.02109	8.5307
5.97942	8.5735
5.93832	8.5835
5.89778	8.6499
5.8578	8.7102
5.81835	8.7053
5.77943	8.7546
5.74103	8.791
5.70314	8.8271
5.66574	8.8608
5.62883	8.8767
5.5924	8.9101
5.55644	8.9409
5.52093	8.9707
5.48588	9.0056
5.45127	9.0349
5.41709	9.0459
5.38334	9.0737
5.35	9.0896
5.31708	9.1294
5.28456	9.1438
5.25243	9.1728
5.2207	9.1853
5.18934	9.2248
5.15836	9.247
5.12775	9.2593
5.09749	9.2641
5.0676	9.2859
5.03805	9.2998
5.00884	9.3066
4.97998	9.2929
4.95144	9.3012
4.92322	9.3093
4.89533	9.3176
4.86775	9.3232
4.84048	9.3171
4.81351	9.3301
4.78684	9.3403
4.76047	9.354
4.73439	9.3564
4.70859	9.3735
4.68306	9.3774
4.65782	9.3933
4.63284	9.407
4.60814	9.4343
4.58369	9.4529
4.5595	9.4458
4.53557	9.4504
4.51188	9.4685
4.48845	9.4746
4.46525	9.4787
4.44229	9.4863
4.41957	9.4897
4.39708	9.4941
4.37481	9.5124
4.35277	9.5215
4.33096	9.5356
4.30935	9.5393
4.28797	9.5417
4.26679	9.5552
4.24583	9.5625
4.22506	9.5608
4.2045	9.572
4.18414	9.5898
4.16398	9.603
4.14401	9.6079
4.12423	9.6228
4.10464	9.6272
4.08523	9.6211
4.066	9.6369
4.04696	9.643
4.02809	9.6362
4.0094	9.6472
3.99088	9.6467
3.97253	9.6596
3.95435	9.6631
3.93634	9.6675
3.91848	9.6826
3.90079	9.7002
3.88326	9.6899
3.86589	9.7002
3.84867	9.6948
3.8316	9.708
3.81468	9.727
3.79791	9.7282
3.78129	9.7392
3.76482	9.7368
3.74848	9.7387
3.73229	9.7427
3.71624	9.7392
3.70032	9.7505
3.68454	9.7387
3.6689	9.7392
3.65338	9.7448
3.638	9.7353
3.62275	9.7295
3.60762	9.7207
3.59262	9.7358
3.57775	9.7334
3.56299	9.7285
3.54836	9.7226
3.53385	9.7314
3.51945	9.7353
3.50517	9.7461
3.49101	9.7375
3.47696	9.7427
3.46303	9.7397
3.4492	9.7466
3.43549	9.75
3.42188	9.7549
3.40838	9.7519
3.39499	9.7475
3.38171	9.7163
3.36852	9.7173
3.35544	9.7309
3.34246	9.7158
3.32958	9.7046
3.3168	9.707
3.30411	9.7021
3.29153	9.6853
3.27903	9.6838
3.26664	9.6831
3.25433	9.6653
3.24212	9.6684
3.23	9.6606
3.21797	9.6533
3.20603	9.6455
3.19418	9.6638
3.18241	9.6479
3.17074	9.6372
3.15914	9.6264
3.14763	9.6264
3.13621	9.625
3.12487	9.6057
3.11361	9.6123
3.10243	9.5979
3.09133	9.5849
3.0803	9.5869
3.06936	9.5722
3.0585	9.5581
3.04771	9.5666
3.037	9.5595
3.02636	9.5469
3.0158	9.5259
3.00531	9.5117
2.99489	9.5188
2.98454	9.5176
2.97427	9.4944
2.96407	9.4824
2.95393	9.4719
2.94387	9.4629
2.93387	9.436
2.92394	9.4243
2.91408	9.3882
2.90429	9.3869
2.89456	9.4035
2.88489	9.3674
2.87529	9.3589
2.86576	9.3554
2.85628	9.3418
2.84687	9.3511
2.83752	9.3401
2.82823	9.3393
2.81901	9.3039
2.80984	9.2959
2.80073	9.2617
2.79168	9.2776
2.78269	9.2417
2.77376	9.2334
2.76488	9.2102
2.75606	9.1965
2.7473	9.2285
2.73859	9.2043
2.72994	9.2112
2.72134	9.174
2.7128	9.1633
2.70431	9.1728
2.69587	9.1426
2.68748	9.126
2.67915	9.1076
2.67087	9.0766
2.66264	9.0786
2.65446	9.0591
2.64633	9.0542
2.63825	9.0166
2.63021	8.9883
2.62223	8.9863
2.6143	8.9775
2.60641	8.9521
2.59857	8.9492
2.59078	8.9238
2.58304	8.8901
2.57534	8.9043
2.56768	8.8911
2.56008	8.8872
2.55251	8.8603
2.54499	8.8691
2.53752	8.8301
2.53009	8.7959
2.5227	8.8032
2.51536	8.7959
2.50806	8.7842
2.5008	8.7959
2.49358	8.7705
2.4864	8.7602
2.47927	8.7568
2.47218	8.751
2.46512	8.7285
2.45811	8.7226
2.45114	8.7021
2.4442	8.6904
2.43731	8.6513
2.43045	8.6582
2.42363	8.6592
2.41685	8.6445
2.41011	8.6684
2.40341	8.6328
2.39674	8.5996
2.39011	8.5747
2.38352	8.5859
2.37696	8.5654
2.37044	8.5703
2.36395	8.5732
2.35751	8.5337
2.35109	8.5566
2.34471	8.5415
2.33836	8.5254
2.33205	8.5058
2.32578	8.5063
2.31953	8.5024
2.31332	8.5273
2.30714	8.5156
2.301	8.5117
2.29489	8.4521
2.28881	8.5019
2.28276	8.4717
2.27675	8.5078
2.27076	8.4941
2.26481	8.4648
2.25889	8.4824
2.253	8.4551
2.24714	8.4385
2.24131	8.4453
2.23551	8.4502
2.22974	8.459
2.224	8.4326
2.21829	8.4297
2.21261	8.459
2.20696	8.416
2.20134	8.3838
2.19574	8.4228
2.19018	8.4092
2.18464	8.4004
2.17913	8.3789
2.17365	8.3867
2.16819	8.4179
2.16277	8.3984
2.15737	8.3379
2.15199	8.3994
2.14665	8.3613
2.14133	8.334
2.13603	8.3564
2.13077	8.3847
2.12552	8.3291
2.12031	8.3281
2.11512	8.2812
2.10995	8.3369
2.10481	8.291
2.0997	8.291
2.09461	8.2822
2.08954	8.2539
2.0845	8.2715
2.07948	8.2676
