Name: Magnetite Fe+2Fe2+3O4
Type: Mineral
Class: Oxides
Subclass: (Spinel Group)
Particle Size: Solid
Sample No.: magnet.1
Owner: JHU
Wavelength Range: IR
Origin: Santa Barbara, Minas Gerais, Brazil via the Smithsonian
Description: The sample was composed of two large (3 cm x 3 cm x 2
Measurement: Bidirectional reflectance
X Units: Wavelength (micrometers)
Y Units: Reflectance (percent)
wavelength	value
25.0442	45.5819
24.3388	44.2079
23.6719	43.2538
23.0407	42.5136
22.4422	41.8378
21.8741	41.6059
21.334	41.2323
20.8199	41.0839
20.33	41.223
19.8627	40.8056
19.4163	40.8983
18.9896	41.214
18.5812	42.8175
18.19	46.6232
17.815	51.923
17.4551	50.4044
17.1094	45.7658
16.7772	42.6193
16.4576	40.8881
16.15	39.8556
15.8537	39.2013
15.568	38.7199
15.2925	38.2318
15.0265	37.8324
14.7697	37.5072
14.5214	37.2121
14.2814	36.9345
14.0492	36.6386
13.8244	36.3888
13.6067	36.2482
13.3957	36.1293
13.1912	36.0375
12.9929	35.9037
12.8004	35.7941
12.6135	35.6786
12.432	35.5824
12.2557	35.5561
12.0843	35.4926
11.9176	35.3983
11.7555	35.3944
11.5977	35.4208
11.444	35.4569
11.2944	35.4701
11.1487	35.4599
11.0067	35.3964
10.8682	35.392
10.7332	35.393
10.6015	35.4066
10.473	35.3556
10.3476	35.2299
10.2251	35.1051
10.1056	34.9511
9.98873	34.786
9.87458	34.6335
9.763	34.4711
9.65392	34.3927
9.54724	34.3358
9.44291	34.3329
9.34082	34.3114
9.24091	34.2616
9.14312	34.2421
9.04739	34.2123
8.95363	34.0478
8.8618	34.0771
8.77183	34.1039
8.68368	34.1132
8.59727	34.1435
8.51257	34.2138
8.42951	34.2421
8.34807	34.2326
8.26819	34.2206
8.18981	34.2379
8.11292	34.224
8.03745	34.2121
7.96337	34.2199
7.89064	34.2279
7.81924	34.1942
7.74911	34.183
7.68023	34.0973
7.61256	33.9826
7.54608	33.9135
7.48074	33.8683
7.41653	33.8449
7.35341	33.7763
7.29136	33.745
7.23034	33.6899
7.17033	33.6623
7.11132	33.693
7.05327	33.673
6.99616	33.7018
6.93996	33.7055
6.88467	33.7311
6.83024	33.738
6.77667	33.7702
6.72393	33.7633
6.67201	33.7162
6.62089	33.7065
6.57054	33.6474
6.52095	33.682
6.4721	33.6403
6.42398	33.5822
6.37657	33.6339
6.32986	33.63
6.28382	33.601
6.23845	33.5402
6.19373	33.4689
6.14965	33.4247
6.10619	33.3278
6.06334	33.3276
6.02109	33.3166
5.97942	33.2856
5.93832	33.1764
5.89778	33.2638
5.8578	33.3898
5.81835	33.339
5.77943	33.4086
5.74103	33.3813
5.70314	33.4233
5.66574	33.4872
5.62883	33.4877
5.5924	33.5043
5.55644	33.4965
5.52093	33.4806
5.48588	33.4765
5.45127	33.4757
5.41709	33.4201
5.38334	33.4294
5.35	33.3788
5.31708	33.3971
5.28456	33.3539
5.25243	33.3092
5.2207	33.2714
5.18934	33.2587
5.15836	33.2448
5.12775	33.2157
5.09749	33.1774
5.0676	33.1464
5.03805	33.1415
5.00884	33.1283
4.97998	33.1105
4.95144	33.099
4.92322	33.1037
4.89533	33.1215
4.86775	33.1427
4.84048	33.1264
4.81351	33.1281
4.78684	33.1305
4.76047	33.121
4.73439	33.1083
4.70859	33.1015
4.68306	33.0758
4.65782	33.068
4.63284	33.0617
4.60814	33.0705
4.58369	33.0341
4.5595	32.9948
4.53557	32.9526
4.51188	32.922
4.48845	32.9106
4.46525	32.8852
4.44229	32.8593
4.41957	32.8695
4.39708	32.8564
4.37481	32.8617
4.35277	32.8183
4.33096	32.8122
4.30935	32.7819
4.28797	32.7924
4.26679	32.8012
4.24583	32.8095
4.22506	32.8083
4.2045	32.8029
4.18414	32.8193
4.16398	32.7997
4.14401	32.7934
4.12423	32.7873
4.10464	32.7865
4.08523	32.7997
4.066	32.7804
4.04696	32.7694
4.02809	32.7467
4.0094	32.7301
3.99088	32.7128
3.97253	32.6806
3.95435	32.6628
3.93634	32.6484
3.91848	32.6698
3.90079	32.6527
3.88326	32.6308
3.86589	32.6142
3.84867	32.5912
3.8316	32.5837
3.81468	32.5729
3.79791	32.5649
3.78129	32.5805
3.76482	32.5585
3.74848	32.5712
3.73229	32.5854
3.71624	32.5766
3.70032	32.56
3.68454	32.5483
3.6689	32.5331
3.65338	32.5507
3.638	32.561
3.62275	32.5297
3.60762	32.5302
3.59262	32.517
3.57775	32.5243
3.56299	32.4999
3.54836	32.4609
3.53385	32.4413
3.51945	32.4027
3.50517	32.4369
3.49101	32.4467
3.47696	32.4152
3.46303	32.4184
3.4492	32.3859
3.43549	32.3578
3.42188	32.4008
3.40838	32.411
3.39499	32.4125
3.38171	32.4347
3.36852	32.4806
3.35544	32.453
3.34246	32.4447
3.32958	32.4416
3.3168	32.4228
3.30411	32.4506
3.29153	32.4328
3.27903	32.4394
3.26664	32.4384
3.25433	32.4311
3.24212	32.4394
3.23	32.4247
3.21797	32.425
3.20603	32.422
3.19418	32.4057
3.18241	32.4252
3.17074	32.4203
3.15914	32.4191
3.14763	32.3871
3.13621	32.3322
3.12487	32.339
3.11361	32.3432
3.10243	32.3566
3.09133	32.3041
3.0803	32.3339
3.06936	32.3351
3.0585	32.3002
3.04771	32.34
3.037	32.329
3.02636	32.3595
3.0158	32.3349
3.00531	32.329
2.99489	32.3373
2.98454	32.3964
2.97427	32.3742
2.96407	32.3739
2.95393	32.3764
2.94387	32.3634
2.93387	32.3554
2.92394	32.3263
2.91408	32.3634
2.90429	32.3898
2.89456	32.4162
2.88489	32.4179
2.87529	32.3869
2.86576	32.4113
2.85628	32.4135
2.84687	32.4132
2.83752	32.3879
2.82823	32.3693
2.81901	32.3576
2.80984	32.3871
2.80073	32.371
2.79168	32.3798
2.78269	32.3368
2.77376	32.3634
2.76488	32.3293
2.75606	32.2773
2.7473	32.3564
2.73859	32.308
2.72994	32.3588
2.72134	32.3393
2.7128	32.37
2.70431	32.3056
2.69587	32.2802
2.68748	32.3485
2.67915	32.2958
2.67087	32.2558
2.66264	32.3368
2.65446	32.29
2.64633	32.2734
2.63825	32.2582
2.63021	32.1957
2.62223	32.2328
2.6143	32.2426
2.60641	32.1425
2.59857	32.2348
2.59078	32.2231
2.58304	32.1425
2.57534	32.2177
2.56768	32.1938
2.56008	32.1503
2.55251	32.1366
2.54499	32.1689
2.53752	32.1122
2.53009	32.1249
2.5227	32.0673
2.51536	32.0155
2.50806	32.0986
2.5008	32.0478
2.49358	32.0395
2.4864	32.0585
2.47927	32.0356
2.47218	32.0038
2.46512	31.8749
2.45811	31.9609
2.45114	31.9472
2.4442	31.8554
2.43731	31.8241
2.43045	31.8095
2.42363	31.7953
2.41685	31.7831
2.41011	31.8105
2.40341	31.6913
2.39674	31.6703
2.39011	31.6508
2.38352	31.6386
2.37696	31.5331
2.37044	31.5478
2.36395	31.5966
2.35751	31.5302
2.35109	31.5146
2.34471	31.4989
2.33836	31.4599
2.33205	31.3573
2.32578	31.3495
2.31953	31.3847
2.31332	31.4355
2.30714	31.2245
2.301	31.1786
2.29489	31.2558
2.28881	31.1571
2.28276	31.0839
2.27675	31.1376
2.27076	31.0741
2.26481	30.9853
2.25889	31.0019
2.253	30.9609
2.24714	30.829
2.24131	30.8564
2.23551	30.8359
2.22974	30.7948
2.224	30.6757
2.21829	30.7402
2.21261	30.6913
2.20696	30.6152
2.20134	30.5663
2.19574	30.5429
2.19018	30.6308
2.18464	30.4511
2.17913	30.3261
2.17365	30.4433
2.16819	30.3866
2.16277	30.4345
2.15737	30.3251
2.15199	30.1445
2.14665	30.1327
2.14133	30.2001
2.13603	30.1952
2.13077	30.0907
2.12552	30.2236
2.12031	30.1152
2.11512	30.0937
2.10995	30.0273
2.10481	29.9579
2.0997	29.9931
2.09461	30.0136
2.08954	29.9618
2.0845	29.9726
2.07948	29.7089
