Name: Richterite Na2Ca(Mg,Fe+2)5Si8O22(OH)2
Type: Mineral
Class: Silicates
Subclass: Inosilicates (chain silicates); (Amphibole Group)
Particle Size: Coarse  (75 - 250  Micrometers)
Sample No.: richter.1
Owner: JHU
Wavelength Range: IR
Origin: Wilberforce, Ontario, Canada via the Smithsonian (sample no.
Description: The sample consisted of two large (6.49 and 6.45 g)
Measurement: Bidirectional reflectance
X Units: Wavelength (micrometers)
Y Units: Reflectance (percent)
wavelength	value
25.0442	9.2158
24.3388	9.6059
23.6719	10.8047
23.0407	12.8156
22.4422	15.4465
21.8741	17.799
21.334	15.7734
20.8199	15.8784
20.33	17.9248
19.8627	20.1276
19.4163	20.4841
18.9896	21.7543
18.5812	23.217
18.19	20.0415
17.815	18.7456
17.4551	15.446
17.1094	9.053
16.7772	3.8638
16.4576	2.6479
16.15	2.7856
15.8537	2.9648
15.568	3.4263
15.2925	4.02
15.0265	4.8174
14.7697	3.7168
14.5214	3.4224
14.2814	3.616
14.0492	3.8154
13.8244	3.9658
13.6067	4.4534
13.3957	4.9463
13.1912	4.2537
12.9929	3.9778
12.8004	4.3142
12.6135	4.5398
12.432	4.7646
12.2557	4.9626
12.0843	5.2571
11.9176	5.5925
11.7555	5.9426
11.5977	6.3005
11.444	6.7844
11.2944	7.5268
11.1487	8.2827
11.0067	9.4062
10.8682	10.145
10.7332	9.9531
10.6015	10.7209
10.473	13.3894
10.3476	17.04
10.2251	20.3
10.1056	22.1227
9.98873	21.8769
9.87458	19.3605
9.763	14.5805
9.65392	11.6174
9.54724	12.3591
9.44291	14.1467
9.34082	14.956
9.24091	14.8198
9.14312	13.5046
9.04739	11.7146
8.95363	11.7824
8.8618	11.4253
8.77183	12.3227
8.68368	13.4736
8.59727	11.5915
8.51257	7.218
8.42951	3.6826
8.34807	1.7925
8.26819	0.8489
8.18981	0.8967
8.11292	1.1614
8.03745	1.4458
7.96337	1.7266
7.89064	2.0015
7.81924	2.2798
7.74911	2.4775
7.68023	2.6667
7.61256	2.8501
7.54608	3.0068
7.48074	3.1597
7.41653	3.2944
7.35341	3.4502
7.29136	3.6162
7.23034	3.7798
7.17033	3.9509
7.11132	4.168
7.05327	4.3747
6.99616	4.5198
6.93996	4.6308
6.88467	4.7571
6.83024	4.8828
6.77667	5.0627
6.72393	5.2229
6.67201	5.4465
6.62089	5.6531
6.57054	5.7312
6.52095	5.6091
6.4721	5.3249
6.42398	4.9665
6.37657	4.6528
6.32986	4.4226
6.28382	4.2649
6.23845	4.1853
6.19373	4.1892
6.14965	4.2744
6.10619	4.3972
6.06334	4.5188
6.02109	4.5747
5.97942	4.5539
5.93832	4.5586
5.89778	4.6184
5.8578	4.7222
5.81835	4.8181
5.77943	4.8889
5.74103	4.9399
5.70314	4.9748
5.66574	5.0354
5.62883	5.115
5.5924	5.2124
5.55644	5.3074
5.52093	5.4309
5.48588	5.6758
5.45127	6.0535
5.41709	6.4743
5.38334	6.8865
5.35	7.1982
5.31708	7.4006
5.28456	7.6445
5.25243	7.8703
5.2207	7.8686
5.18934	7.6125
5.15836	7.2124
5.12775	6.8218
5.09749	6.5698
5.0676	6.4668
5.03805	6.4973
5.00884	6.6487
4.97998	6.8633
4.95144	7.1318
4.92322	7.4013
4.89533	7.7097
4.86775	8.0005
4.84048	8.2807
4.81351	8.5427
4.78684	8.8713
4.76047	9.2961
4.73439	9.7422
4.70859	10.1482
4.68306	10.4634
4.65782	10.7676
4.63284	11.1252
4.60814	11.612
4.58369	12.1506
4.5595	12.7331
4.53557	13.3589
4.51188	13.9419
4.48845	14.499
4.46525	14.9726
4.44229	15.3193
4.41957	15.5822
4.39708	15.771
4.37481	15.9216
4.35277	16.03
4.33096	16.1157
4.30935	16.1767
4.28797	16.2143
4.26679	16.2634
4.24583	16.302
4.22506	16.3527
4.2045	16.3962
4.18414	16.457
4.16398	16.497
4.14401	16.5222
4.12423	16.5644
4.10464	16.6335
4.08523	16.698
4.066	16.7531
4.04696	16.8083
4.02809	16.8569
4.0094	16.9084
3.99088	16.9638
3.97253	17.0207
3.95435	17.0725
3.93634	17.1379
3.91848	17.1909
3.90079	17.2573
3.88326	17.3037
3.86589	17.3288
3.84867	17.3442
3.8316	17.3689
3.81468	17.3833
3.79791	17.3979
3.78129	17.4155
3.76482	17.4213
3.74848	17.4113
3.73229	17.4248
3.71624	17.4121
3.70032	17.3923
3.68454	17.3947
3.6689	17.3718
3.65338	17.3896
3.638	17.3952
3.62275	17.4062
3.60762	17.4191
3.59262	17.435
3.57775	17.4311
3.56299	17.413
3.54836	17.3935
3.53385	17.3891
3.51945	17.3772
3.50517	17.3894
3.49101	17.3925
3.47696	17.3659
3.46303	17.3557
3.4492	17.3164
3.43549	17.2959
3.42188	17.2902
3.40838	17.2502
3.39499	17.1643
3.38171	17.0878
3.36852	17.0446
3.35544	16.9113
3.34246	16.8383
3.32958	16.7929
3.3168	16.7832
3.30411	16.8215
3.29153	16.7973
3.27903	16.7592
3.26664	16.6645
3.25433	16.5429
3.24212	16.5388
3.23	16.6247
3.21797	16.7841
3.20603	16.893
3.19418	16.854
3.18241	16.8186
3.17074	16.7922
3.15914	16.7614
3.14763	16.7092
3.13621	16.5888
3.12487	16.4773
3.11361	16.5058
3.10243	16.6289
3.09133	16.695
3.0803	16.7089
3.06936	16.7326
3.0585	16.6982
3.04771	16.6801
3.037	16.6118
3.02636	16.5664
3.0158	16.5146
3.00531	16.4287
2.99489	16.413
2.98454	16.3833
2.97427	16.2973
2.96407	16.2592
2.95393	16.2385
2.94387	16.2124
2.93387	16.1792
2.92394	16.1547
2.91408	16.125
2.90429	16.1162
2.89456	16.0805
2.88489	16.0471
2.87529	16.0332
2.86576	15.9868
2.85628	15.9458
2.84687	15.893
2.83752	15.8066
2.82823	15.6953
2.81901	15.6606
2.80984	15.666
2.80073	15.7094
2.79168	15.7236
2.78269	15.7407
2.77376	15.6079
2.76488	15.1469
2.75606	14.5385
2.7473	13.6201
2.73859	11.0671
2.72994	7.3362
2.72134	5.3628
2.7128	8.0642
2.70431	5.4836
2.69587	5.2759
2.68748	7.5361
2.67915	11.0288
2.67087	14.5595
2.66264	16.1064
2.65446	16.1318
2.64633	16.1081
2.63825	16.2319
2.63021	16.2685
2.62223	16.2544
2.6143	16.2297
2.60641	16.1367
2.59857	16.0935
2.59078	16.0036
2.58304	15.9126
2.57534	15.8313
2.56768	15.707
2.56008	15.6994
2.55251	15.6543
2.54499	15.625
2.53752	15.6523
2.53009	15.6828
2.5227	15.6796
2.51536	15.6464
2.50806	15.6269
2.5008	15.5571
2.49358	15.3977
2.4864	15.2978
2.47927	15.2275
2.47218	15.1259
2.46512	15.021
2.45811	14.9882
2.45114	14.9983
2.4442	14.9348
2.43731	14.9575
2.43045	14.9953
2.42363	15.0058
2.41685	14.9992
2.41011	15.082
2.40341	14.9228
2.39674	14.5048
2.39011	13.9311
2.38352	13.3877
2.37696	12.886
2.37044	13.5263
2.36395	14.2649
2.35751	14.7307
2.35109	14.9174
2.34471	14.9936
2.33836	14.9492
2.33205	14.7285
2.32578	14.1709
2.31953	12.8803
2.31332	11.9966
2.30714	12.4384
2.301	13.4799
2.29489	14.1342
2.28881	14.6269
2.28276	14.8437
2.27675	15.0366
2.27076	15.3271
2.26481	15.4951
2.25889	15.6084
2.253	15.6845
2.24714	15.7231
2.24131	15.7553
2.23551	15.8379
2.22974	15.8086
2.224	15.8325
2.21829	15.8554
2.21261	15.8613
2.20696	15.8134
2.20134	15.8339
2.19574	15.8144
2.19018	15.8925
2.18464	15.8481
2.17913	15.8286
2.17365	15.8403
2.16819	15.8598
2.16277	15.9047
2.15737	15.9052
2.15199	15.8422
2.14665	15.789
2.14133	15.7744
2.13603	15.8559
2.13077	15.7402
2.12552	15.686
2.12031	15.7295
2.11512	15.7465
2.10995	15.7524
2.10481	15.7797
2.0997	15.8007
2.09461	15.854
2.08954	15.8808
2.0845	15.9257
2.07948	15.9062
