Name: Antigorite (Mg, Fe+2)3 Si2O5(OH)4
Type: Mineral
Class: Silicates
Subclass: Phyllosilicates  (Sheet silicates)  (Serpentine/Kaolin Group)
Particle Size: Solid (cleavage face)
Sample No.: antigorite.1
Owner: JHU.
Wavelength Range: IR
Origin: Sample from Kalsertal, Tyrol, Austria, via the Smithsonian
Description: The sample was a large green single crystal.  It appeared
Measurement: Bidirectional reflectance
X Units: Wavelength (micrometers)
Y Units: Reflectance (percent)
wavelength	value
25.044	33.9882
24.339	32.786
23.672	33.3437
23.041	40.9262
22.442	45.7518
21.874	50.8016
21.334	54.5008
20.82	55.8168
20.33	54.3089
19.863	47.7394
19.416	44.4406
18.99	29.3945
18.581	16.2128
18.19	14.352
17.815	15.6621
17.455	16.6591
17.109	17.1994
16.777	18.248
16.458	21.4267
16.15	25.2565
15.854	28.0793
15.568	31.5404
15.292	34.04
15.027	35.2841
14.77	33.7135
14.521	27.6039
14.281	19.538
14.049	15.1867
13.824	10.8471
13.607	8.4013
13.396	7.6155
13.191	7.7763
12.993	8.2656
12.8	8.623
12.614	9.0146
12.432	9.5134
12.256	9.9638
12.084	10.5146
11.918	11.063
11.755	11.5224
11.598	12.063
11.444	12.7627
11.294	13.52
11.149	14.2951
11.007	15.2819
10.868	16.5517
10.733	18.3837
10.602	21.2214
10.473	24.3464
10.348	27.2934
10.225	31.7323
10.106	35.9789
9.989	38.9682
9.875	42.9796
9.763	46.9486
9.654	52.0106
9.547	55.8412
9.443	50.1581
9.341	40.7821
9.241	36.3366
9.143	35.6244
9.047	34.245
8.954	26.3398
8.862	20.7968
8.772	12.4658
8.684	4.7646
8.597	2.3401
8.513	2.9473
8.43	3.3813
8.348	3.8374
8.268	3.8196
8.19	3.998
8.113	4.4097
8.037	4.7422
7.963	5.0461
7.891	5.3452
7.819	5.6169
7.749	5.8479
7.68	6.0803
7.613	6.2322
7.546	6.3518
7.481	6.4429
7.417	6.5403
7.353	6.6286
7.291	6.7219
7.23	6.8244
7.17	6.9121
7.111	7.0134
7.053	7.0681
6.996	7.1335
6.94	7.188
6.885	7.2326
6.83	7.2519
6.777	7.2781
6.724	7.3147
6.672	7.3218
6.621	7.3518
6.571	7.3428
6.521	7.3965
6.472	7.4233
6.424	7.4148
6.377	7.4414
6.33	7.4614
6.284	7.4909
6.238	7.5295
6.194	7.5386
6.15	7.5356
6.106	7.5359
6.063	7.5759
6.021	7.6064
5.979	7.6313
5.938	7.6003
5.898	7.5901
5.858	7.6059
5.818	7.5471
5.779	7.655
5.741	7.7556
5.703	7.7243
5.666	7.6999
5.629	7.6963
5.592	7.6938
5.556	7.6902
5.521	7.7119
5.486	7.7202
5.451	7.7439
5.417	7.7436
5.383	7.7688
5.35	7.7707
5.317	7.79
5.285	7.8137
5.252	7.8274
5.221	7.8503
5.189	7.8667
5.158	7.8762
5.128	7.8828
5.097	7.8691
5.068	7.8572
5.038	7.8418
5.009	7.8423
4.98	7.8203
4.951	7.8252
4.923	7.8096
4.895	7.7966
4.868	7.7969
4.84	7.7954
4.814	7.8049
4.787	7.7898
4.76	7.7898
4.734	7.8059
4.709	7.8281
4.683	7.8469
4.658	7.8603
4.633	7.8838
4.608	7.9092
4.584	7.9219
4.56	7.9463
4.536	7.9629
4.512	7.9751
4.488	7.9841
4.465	7.99
4.442	7.9834
4.42	7.9761
4.397	7.9848
4.375	7.9785
4.353	7.9726
4.331	7.9785
4.309	7.9668
4.288	7.9761
4.267	7.9731
4.246	7.9831
4.225	7.9861
4.205	7.9853
4.184	7.9956
4.164	8.0166
4.144	8.0259
4.124	8.0224
4.105	8.0552
4.085	8.0659
4.066	8.0654
4.047	8.0793
4.028	8.0737
4.009	8.0576
3.991	8.053
3.973	8.0442
3.954	8.0451
3.936	8.0595
3.918	8.0493
3.901	8.039
3.883	8.0166
3.866	7.9858
3.849	7.9751
3.832	7.9629
3.815	7.9248
3.798	7.8906
3.781	7.8906
3.765	7.8745
3.748	7.8662
3.732	7.8281
3.716	7.7746
3.7	7.7783
3.685	7.7705
3.669	7.7646
3.653	7.7436
3.638	7.7102
3.623	7.6889
3.608	7.6658
3.593	7.6416
3.578	7.6135
3.563	7.581
3.548	7.5591
3.534	7.5229
3.519	7.4927
3.505	7.477
3.491	7.4712
3.477	7.4472
3.463	7.4419
3.449	7.4223
3.435	7.4165
3.422	7.4389
3.408	7.4311
3.395	7.4116
3.382	7.395
3.369	7.4109
3.355	7.3891
3.342	7.3542
3.33	7.3147
3.317	7.3127
3.304	7.302
3.292	7.2705
3.279	7.2641
3.267	7.2451
3.254	7.2234
3.242	7.209
3.23	7.2029
3.218	7.1858
3.206	7.1767
3.194	7.1584
3.182	7.1343
3.171	7.1255
3.159	7.1106
3.148	7.0864
3.136	7.0674
3.125	7.0588
3.114	7.0261
3.102	7.0249
3.091	7.0061
3.08	7.0012
3.069	6.9936
3.058	6.966
3.048	6.9492
3.037	6.9365
3.026	6.9287
3.016	6.8984
3.005	6.8909
2.995	6.8782
2.985	6.8569
2.974	6.8203
2.964	6.8
2.954	6.7798
2.944	6.7495
2.934	6.7119
2.924	6.7026
2.914	6.6594
2.904	6.6357
2.895	6.6457
2.885	6.6252
2.875	6.6057
2.866	6.5725
2.856	6.5693
2.847	6.539
2.838	6.5217
2.828	6.4475
2.819	6.4082
2.81	6.3994
2.801	6.3369
2.792	6.3235
2.783	6.3076
2.774	6.3118
2.765	6.2727
2.756	6.2021
2.747	6.1457
2.739	6.0771
2.73	6.0723
2.721	6.1323
2.713	6.1079
2.704	5.9551
2.696	6.2388
2.687	6.5259
2.679	6.8379
2.671	6.8545
2.663	6.8208
2.654	6.7886
2.646	6.7754
2.638	6.792
2.63	6.7392
2.622	6.7471
2.614	6.7055
2.606	6.6426
2.599	6.6015
2.591	6.5537
2.583	6.4756
2.575	6.4619
2.568	6.4341
2.56	6.4443
2.553	6.438
2.545	6.4346
2.538	6.4424
2.53	6.4199
2.523	6.3266
2.515	6.3262
2.508	6.3149
2.501	6.3369
2.494	6.3447
2.486	6.3965
2.479	6.3813
2.472	6.418
2.465	6.3926
2.458	6.3931
2.451	6.3188
2.444	6.3086
2.437	6.3476
2.43	6.3364
2.424	6.3032
2.417	6.3086
2.41	6.3808
2.403	6.3618
2.397	6.3711
2.39	6.3579
2.384	6.3091
2.377	6.3735
2.37	6.5005
2.364	6.52
2.358	6.4941
2.351	6.3525
2.345	6.1875
2.338	6.0859
2.332	6.0244
2.326	5.9922
2.32	6.0527
2.313	6.082
2.307	6.1465
2.301	6.2334
2.295	6.2353
2.289	6.3193
2.283	6.376
2.277	6.4267
2.271	6.5049
2.265	6.6767
2.259	6.8183
2.253	6.8242
2.247	6.9189
2.241	7.0137
2.236	7.2207
2.23	7.5185
2.224	7.751
2.218	7.8887
2.213	7.958
2.207	7.957
2.201	7.9824
2.196	8.0078
2.19	8.0752
2.185	8.0547
2.179	8.0547
2.174	8.0713
2.168	8.0332
2.163	8.001
2.157	7.9853
2.152	7.8984
2.147	7.8525
2.141	7.7676
2.136	7.7773
2.131	7.7627
2.126	7.8301
2.12	7.8457
2.115	7.7627
2.11	7.7734
2.105	7.791
2.1	7.8603
2.095	7.8799
2.09	7.876
2.085	7.9648
2.079	8.0722
