Name: Hemimorphite Zn4Si2O7(OH)2.H2O
Type: Mineral
Class: Silicates
Subclass: Sorosilicates (Two isolated tetrahydra)
Particle Size: Coarse (74-250 micrometers)
Sample No.: hemimor.1
Owner: JHU
Wavelength Range: IR
Origin: Mapimi, Durango, Mexico via the Smithsonian (sample
Description: The sample consisted of two white, translucent
Measurement: Bidirectional reflectance
X Units: Wavelength (micrometers)
Y Units: Reflectance (percent)
wavelength	value
25.0442	2.3271
24.3388	2.6572
23.6719	2.7576
23.0407	3.0163
22.4422	3.5998
21.8741	4.156
21.334	1.8806
20.8199	2.2009
20.33	2.4653
19.8627	2.6201
19.4163	2.8843
18.9896	3.2917
18.5812	3.7527
18.19	4.0488
17.815	4.5478
17.4551	4.0503
17.1094	3.033
16.7772	3.1111
16.4576	4.387
16.15	3.947
15.8537	2.104
15.568	1.2686
15.2925	1.4473
15.0265	1.7324
14.7697	2.2637
14.5214	1.6838
14.2814	1.4326
14.0492	1.4956
13.8244	1.5781
13.6067	1.6494
13.3957	1.6921
13.1912	1.7585
12.9929	1.7983
12.8004	1.8708
12.6135	1.9282
12.432	1.9902
12.2557	2.0989
12.0843	2.22
11.9176	2.3481
11.7555	2.7012
11.5977	3.6894
11.444	4.2517
11.2944	2.2593
11.1487	2.2703
11.0067	2.8435
10.8682	3.9756
10.7332	6.2556
10.6015	5.9653
10.473	5.3982
10.3476	5.8078
10.2251	6.2612
10.1056	6.2781
9.98873	5.3633
9.87458	3.8923
9.763	2.8889
9.65392	1.9563
9.54724	1.1768
9.44291	0.9893
9.34082	1.3127
9.24091	2.0376
9.14312	3.0239
9.04739	3.7288
8.95363	3.2131
8.8618	2.0276
8.77183	1.0742
8.68368	0.7361
8.59727	0.7954
8.51257	0.887
8.42951	0.979
8.34807	1.0522
8.26819	1.135
8.18981	1.2041
8.11292	1.282
8.03745	1.3799
7.96337	1.4609
7.89064	1.5872
7.81924	1.7141
7.74911	1.8137
7.68023	1.9209
7.61256	2.071
7.54608	2.2019
7.48074	2.3179
7.41653	2.3545
7.35341	2.2664
7.29136	2.1838
7.23034	2.2515
7.17033	2.4011
7.11132	2.5232
7.05327	2.5586
6.99616	2.5369
6.93996	2.499
6.88467	2.457
6.83024	2.4827
6.77667	2.5137
6.72393	2.5171
6.67201	2.4751
6.62089	2.3938
6.57054	2.229
6.52095	1.9414
6.4721	1.8069
6.42398	1.8857
6.37657	1.9914
6.32986	1.9888
6.28382	1.8706
6.23845	1.6851
6.19373	1.5305
6.14965	1.4783
6.10619	1.3203
6.06334	1.2935
6.02109	1.4597
5.97942	1.7056
5.93832	1.9844
5.89778	2.2468
5.8578	2.4307
5.81835	2.5308
5.77943	2.5752
5.74103	2.456
5.70314	2.1333
5.66574	1.9675
5.62883	1.9675
5.5924	1.7988
5.55644	1.8931
5.52093	2.1055
5.48588	2.1772
5.45127	2.178
5.41709	2.0454
5.38334	1.8838
5.35	1.8445
5.31708	1.8352
5.28456	1.8408
5.25243	1.8547
5.2207	1.8901
5.18934	1.9287
5.15836	2.0185
5.12775	2.1189
5.09749	2.1938
5.0676	2.2502
5.03805	2.2927
5.00884	2.2678
4.97998	2.1604
4.95144	2.1511
4.92322	2.2107
4.89533	2.3179
4.86775	2.4038
4.84048	2.5137
4.81351	2.665
4.78684	2.8391
4.76047	3.0251
4.73439	3.2043
4.70859	3.4021
4.68306	3.6081
4.65782	3.8403
4.63284	4.1138
4.60814	4.354
4.58369	4.5954
4.5595	4.843
4.53557	5.0801
4.51188	5.3149
4.48845	5.5471
4.46525	5.7654
4.44229	6.0154
4.41957	6.2795
4.39708	6.5066
4.37481	6.7309
4.35277	6.9236
4.33096	7.1013
4.30935	7.2507
4.28797	7.4065
4.26679	7.5862
4.24583	7.7524
4.22506	7.9035
4.2045	8.0366
4.18414	8.1553
4.16398	8.2649
4.14401	8.3633
4.12423	8.4399
4.10464	8.5017
4.08523	8.5796
4.066	8.6875
4.04696	8.7846
4.02809	8.8772
4.0094	8.9433
3.99088	9.001
3.97253	9.0605
3.95435	9.0998
3.93634	9.1238
3.91848	9.1482
3.90079	9.1506
3.88326	9.1543
3.86589	9.1489
3.84867	9.1675
3.8316	9.1677
3.81468	9.1792
3.79791	9.1931
3.78129	9.1921
3.76482	9.1802
3.74848	9.1579
3.73229	9.1064
3.71624	9.0532
3.70032	8.9675
3.68454	8.8782
3.6689	8.8166
3.65338	8.7607
3.638	8.6921
3.62275	8.592
3.60762	8.4751
3.59262	8.3674
3.57775	8.2302
3.56299	8.0962
3.54836	7.9443
3.53385	7.7839
3.51945	7.6162
3.50517	7.4233
3.49101	7.2317
3.47696	7.0254
3.46303	6.813
3.4492	6.5698
3.43549	6.3276
3.42188	6.0488
3.40838	5.7988
3.39499	5.5278
3.38171	5.258
3.36852	4.9824
3.35544	4.7204
3.34246	4.4477
3.32958	4.1692
3.3168	3.9214
3.30411	3.6714
3.29153	3.4116
3.27903	3.2021
3.26664	2.9863
3.25433	2.7895
3.24212	2.6138
3.23	2.4314
3.21797	2.2788
3.20603	2.1418
3.19418	2.0156
3.18241	1.876
3.17074	1.7717
3.15914	1.675
3.14763	1.5854
3.13621	1.4963
3.12487	1.4175
3.11361	1.3672
3.10243	1.2866
3.09133	1.2349
3.0803	1.1985
3.06936	1.1619
3.0585	1.1309
3.04771	1.114
3.037	1.0813
3.02636	1.0574
3.0158	1.0276
3.00531	1.0061
2.99489	0.998
2.98454	0.9927
2.97427	0.9741
2.96407	0.9507
2.95393	0.9441
2.94387	0.9185
2.93387	0.9158
2.92394	0.8972
2.91408	0.8901
2.90429	0.8689
2.89456	0.8557
2.88489	0.8669
2.87529	0.8281
2.86576	0.812
2.85628	0.8103
2.84687	0.7969
2.83752	0.7832
2.82823	0.7747
2.81901	0.783
2.80984	0.7869
2.80073	0.7771
2.79168	0.7683
2.78269	0.7664
2.77376	0.7561
2.76488	0.7568
2.75606	0.7578
2.7473	0.7764
2.73859	0.8105
2.72994	0.8481
2.72134	0.8943
2.7128	0.9587
2.70431	1.062
2.69587	1.1565
2.68748	1.2778
2.67915	1.4114
2.67087	1.5376
2.66264	1.6765
2.65446	1.7961
2.64633	1.918
2.63825	2.0271
2.63021	2.1448
2.62223	2.2534
2.6143	2.3664
2.60641	2.4668
2.59857	2.5684
2.59078	2.6704
2.58304	2.7815
2.57534	2.8906
2.56768	2.968
2.56008	3.0491
2.55251	3.178
2.54499	3.2808
2.53752	3.3784
2.53009	3.5068
2.5227	3.6553
2.51536	3.7844
2.50806	3.9617
2.5008	4.1265
2.49358	4.3213
2.4864	4.4836
2.47927	4.6699
2.47218	4.814
2.46512	4.9385
2.45811	5.0537
2.45114	5.1472
2.4442	5.2327
2.43731	5.2971
2.43045	5.4184
2.42363	5.4919
2.41685	5.5986
2.41011	5.7034
2.40341	5.8098
2.39674	5.9119
2.39011	6.0408
2.38352	6.1858
2.37696	6.3638
2.37044	6.5849
2.36395	6.8039
2.35751	7.0896
2.35109	7.376
2.34471	7.6474
2.33836	7.8735
2.33205	8.0649
2.32578	8.227
2.31953	8.3887
2.31332	8.4751
2.30714	8.5491
2.301	8.5989
2.29489	8.6687
2.28881	8.6799
2.28276	8.6931
2.27675	8.6933
2.27076	8.6948
2.26481	8.6516
2.25889	8.656
2.253	8.5847
2.24714	8.4797
2.24131	8.436
2.23551	8.3713
2.22974	8.3008
2.224	8.2297
2.21829	8.248
2.21261	8.3144
2.20696	8.3535
2.20134	8.3857
2.19574	8.4675
2.19018	8.6308
2.18464	8.7258
2.17913	8.8376
2.17365	8.9751
2.16819	9.0908
2.16277	9.165
2.15737	9.2329
2.15199	9.3396
2.14665	9.4924
2.14133	9.5547
2.13603	9.6311
2.13077	9.675
2.12552	9.8012
2.12031	9.8208
2.11512	9.8569
2.10995	9.9375
2.10481	9.9824
2.0997	9.9797
2.09461	10.0527
2.08954	10.0542
2.0845	10.0578
2.07948	10.0617
