Name: Nepheline (Na,K)AlSiO4
Type: Mineral
Class: Silicates
Subclass: Tectosilicates (Framework Silicates); (Feldspathoid Group)
Particle Size: Course  (75-250  Micrometers)
Sample No.: nephel.2
Owner: JHU
Wavelength Range: IR
Origin: Brevig, Norway via Norma Vergo
Description: The hand sample was a massive chunk of unusually dark gray
Measurement: Bidirectional reflectance
X Units: Wavelength (micrometers)
Y Units: Reflectance (percent)
wavelength	value
25.0442	1.6245
24.3388	1.7671
23.6719	1.6777
23.0407	1.7483
22.4422	2.1846
21.8741	2.8762
21.334	4.281
20.8199	4.8025
20.33	2.8301
19.8627	1.5056
19.4163	1.9917
18.9896	2.0151
18.5812	1.1472
18.19	0.4067
17.815	0.4375
17.4551	0.5574
17.1094	0.5996
16.7772	0.7124
16.4576	0.7632
16.15	0.7944
15.8537	0.822
15.568	0.8853
15.2925	0.9499
15.0265	1.0234
14.7697	1.1904
14.5214	1.4258
14.2814	1.418
14.0492	1.1252
13.8244	0.7969
13.6067	0.5471
13.3957	0.5613
13.1912	0.6035
12.9929	0.6609
12.8004	0.7102
12.6135	0.824
12.432	0.9001
12.2557	0.9802
12.0843	1.0115
11.9176	1.0388
11.7555	1.0859
11.5977	1.1047
11.444	1.1226
11.2944	1.1902
11.1487	1.2498
11.0067	1.3328
10.8682	1.4087
10.7332	1.5457
10.6015	1.7895
10.473	2.2024
10.3476	2.8545
10.2251	3.6789
10.1056	4.1467
9.98873	4.678
9.87458	4.9797
9.763	5.0188
9.65392	4.6262
9.54724	4.9619
9.44291	4.0627
9.34082	3.2209
9.24091	2.9851
9.14312	3.5359
9.04739	3.74
8.95363	3.3796
8.8618	3.1643
8.77183	2.9385
8.68368	2.6423
8.59727	2.1934
8.51257	1.5166
8.42951	0.8137
8.34807	0.2839
8.26819	0.0789
8.18981	0.0847
8.11292	0.1084
8.03745	0.1533
7.96337	0.1985
7.89064	0.2419
7.81924	0.2944
7.74911	0.3374
7.68023	0.3867
7.61256	0.4377
7.54608	0.478
7.48074	0.5186
7.41653	0.5403
7.35341	0.5408
7.29136	0.5481
7.23034	0.5564
7.17033	0.5779
7.11132	0.6047
7.05327	0.6345
6.99616	0.679
6.93996	0.7366
6.88467	0.7568
6.83024	0.7253
6.77667	0.686
6.72393	0.6802
6.67201	0.7063
6.62089	0.7571
6.57054	0.8442
6.52095	0.9915
6.4721	1.134
6.42398	1.2107
6.37657	1.1936
6.32986	1.1191
6.28382	1.0317
6.23845	0.9395
6.19373	0.8545
6.14965	0.7217
6.10619	0.6533
6.06334	0.6934
6.02109	0.7229
5.97942	0.7388
5.93832	0.7605
5.89778	0.7871
5.8578	0.844
5.81835	0.9307
5.77943	1.0339
5.74103	1.1455
5.70314	1.2686
5.66574	1.3965
5.62883	1.5073
5.5924	1.6025
5.55644	1.7185
5.52093	1.865
5.48588	2.0549
5.45127	2.262
5.41709	2.4841
5.38334	2.7224
5.35	2.9665
5.31708	3.1628
5.28456	3.2678
5.25243	3.259
5.2207	3.0493
5.18934	2.6941
5.15836	2.4316
5.12775	2.2258
5.09749	2.2122
5.0676	2.3398
5.03805	2.5303
5.00884	2.6577
4.97998	2.7903
4.95144	2.7871
4.92322	2.6841
4.89533	2.5937
4.86775	2.6238
4.84048	2.7236
4.81351	2.8562
4.78684	3.0029
4.76047	3.1995
4.73439	3.4092
4.70859	3.604
4.68306	3.7976
4.65782	3.9773
4.63284	4.1145
4.60814	4.2414
4.58369	4.3718
4.5595	4.5161
4.53557	4.6724
4.51188	4.823
4.48845	4.9758
4.46525	5.124
4.44229	5.2683
4.41957	5.3884
4.39708	5.4946
4.37481	5.5793
4.35277	5.6374
4.33096	5.6826
4.30935	5.719
4.28797	5.7566
4.26679	5.7886
4.24583	5.821
4.22506	5.8523
4.2045	5.8852
4.18414	5.9155
4.16398	5.9285
4.14401	5.9419
4.12423	5.9651
4.10464	5.9812
4.08523	5.9956
4.066	6.0234
4.04696	6.029
4.02809	6.0535
4.0094	6.0686
3.99088	6.0808
3.97253	6.0849
3.95435	6.0969
3.93634	6.1062
3.91848	6.1055
3.90079	6.1142
3.88326	6.1108
3.86589	6.114
3.84867	6.1023
3.8316	6.0913
3.81468	6.092
3.79791	6.0703
3.78129	6.0725
3.76482	6.0603
3.74848	6.0561
3.73229	6.0505
3.71624	6.029
3.70032	6.0134
3.68454	5.9949
3.6689	5.9682
3.65338	5.9475
3.638	5.9272
3.62275	5.8967
3.60762	5.8633
3.59262	5.8332
3.57775	5.8008
3.56299	5.7607
3.54836	5.7102
3.53385	5.6684
3.51945	5.623
3.50517	5.5769
3.49101	5.5259
3.47696	5.4678
3.46303	5.4131
3.4492	5.3459
3.43549	5.2878
3.42188	5.2121
3.40838	5.1516
3.39499	5.0925
3.38171	5.0215
3.36852	4.9607
3.35544	4.8713
3.34246	4.8008
3.32958	4.7263
3.3168	4.6448
3.30411	4.5513
3.29153	4.4599
3.27903	4.3686
3.26664	4.2883
3.25433	4.1999
3.24212	4.1077
3.23	4.0063
3.21797	3.9106
3.20603	3.8105
3.19418	3.7207
3.18241	3.6247
3.17074	3.5178
3.15914	3.4099
3.14763	3.313
3.13621	3.1992
3.12487	3.1033
3.11361	2.9756
3.10243	2.8726
3.09133	2.7393
3.0803	2.6384
3.06936	2.5569
3.0585	2.4963
3.04771	2.4451
3.037	2.4287
3.02636	2.3826
3.0158	2.3513
3.00531	2.2891
2.99489	2.2358
2.98454	2.1597
2.97427	2.0928
2.96407	2.0256
2.95393	1.9443
2.94387	1.8572
2.93387	1.7644
2.92394	1.6558
2.91408	1.5398
2.90429	1.4761
2.89456	1.4285
2.88489	1.3762
2.87529	1.2766
2.86576	1.2432
2.85628	1.2754
2.84687	1.3235
2.83752	1.3228
2.82823	1.2952
2.81901	1.2673
2.80984	1.2678
2.80073	1.3098
2.79168	1.375
2.78269	1.449
2.77376	1.5051
2.76488	1.5786
2.75606	1.7541
2.7473	2.1184
2.73859	2.6633
2.72994	3.1653
2.72134	3.6145
2.7128	3.9814
2.70431	4.2949
2.69587	4.5469
2.68748	4.7339
2.67915	4.8882
2.67087	4.9753
2.66264	5.0969
2.65446	5.1726
2.64633	5.2324
2.63825	5.2717
2.63021	5.279
2.62223	5.2947
2.6143	5.29
2.60641	5.2895
2.59857	5.2739
2.59078	5.2539
2.58304	5.2124
2.57534	5.1772
2.56768	5.1245
2.56008	5.0393
2.55251	4.9814
2.54499	4.9392
2.53752	4.9053
2.53009	4.9011
2.5227	4.885
2.51536	4.9065
2.50806	4.9119
2.5008	4.9275
2.49358	4.9487
2.4864	4.9739
2.47927	4.9846
2.47218	5.0415
2.46512	5.0661
2.45811	5.1184
2.45114	5.1775
2.4442	5.2261
2.43731	5.2729
2.43045	5.3259
2.42363	5.3794
2.41685	5.3987
2.41011	5.4231
2.40341	5.4565
2.39674	5.4661
2.39011	5.4577
2.38352	5.4822
2.37696	5.4704
2.37044	5.5039
2.36395	5.4934
2.35751	5.4895
2.35109	5.4922
2.34471	5.488
2.33836	5.4863
2.33205	5.488
2.32578	5.4656
2.31953	5.4824
2.31332	5.4934
2.30714	5.4758
2.301	5.4783
2.29489	5.4851
2.28881	5.4827
2.28276	5.4704
2.27675	5.477
2.27076	5.4433
2.26481	5.477
2.25889	5.4687
2.253	5.4697
2.24714	5.4753
2.24131	5.4658
2.23551	5.4609
2.22974	5.4326
2.224	5.4814
2.21829	5.4709
2.21261	5.4475
2.20696	5.4741
2.20134	5.4924
2.19574	5.4602
2.19018	5.4805
2.18464	5.5027
2.17913	5.477
2.17365	5.4973
2.16819	5.4707
2.16277	5.4675
2.15737	5.5061
2.15199	5.5115
2.14665	5.5005
2.14133	5.488
2.13603	5.5205
2.13077	5.5361
2.12552	5.5132
2.12031	5.5283
2.11512	5.5737
2.10995	5.5442
2.10481	5.5576
2.0997	5.5508
2.09461	5.5749
2.08954	5.5954
2.0845	5.624
2.07948	5.5932
