Name: Albite Gneiss
Type: Rocks
Class: Metamorphic
Subclass: Gneiss
Particle Size: 500-1500 Micrometer
Sample No.: gneiss5.doc
Owner: JHU
Wavelength Range: All
Origin: Sample No. 390, The Hunt and Salisbury Collection at the U.S.
Description: This coarse-grained rock has been sheared enough to giveit mortar
Measurement: Directional (10 Degree) Hemispherical Reflectance
X Units: Wavelength (micrometers)
Y Units: Reflectance (percent)
wavelength	value
14.9831	1.9741
14.6445	1.4152
14.3209	1.6416
14.0112	2.1929
13.7147	2.0925
13.4304	2.7589
13.1577	2.8115
12.8959	1.9518
12.6443	2.2206
12.4023	1.8756
12.1694	2.177
11.945	2.474
11.7289	2.7215
11.5203	3.0639
11.3191	3.3495
11.1248	3.6654
10.937	3.9553
10.7555	4.2499
10.5799	4.7605
10.4099	5.6476
10.2454	7.4474
10.0859	9.4613
9.9313	11.0219
9.7814	9.9202
9.636	13.8284
9.4948	11.0141
9.3577	9.2638
9.2245	9.0544
9.095	8.1903
8.9691	7.7235
8.8467	9.2199
8.7275	10.2589
8.6116	9.5276
8.4986	9.0587
8.3886	8.9289
8.2814	7.2532
8.1769	4.7702
8.075	2.1995
7.9756	1.0481
7.8786	0.5944
7.784	0.4736
7.6916	0.4497
7.6014	0.4608
7.5133	0.4874
7.4272	0.5286
7.343	0.5816
7.2607	0.6456
7.1803	0.7377
7.1016	0.7706
7.0246	0.8255
6.9493	0.8686
6.8755	0.8739
6.8034	1.0164
6.7327	1.024
6.6634	1.118
6.5956	1.1699
6.5292	1.2028
6.464	1.2269
6.4002	1.2324
6.3376	1.2577
6.2762	1.2338
6.216	1.2156
6.157	1.2281
6.099	1.3046
6.0421	1.2992
5.9863	1.3735
5.9315	1.4306
5.8777	1.4522
5.8249	1.4848
5.773	1.496
5.722	1.5168
5.6719	1.589
5.6227	1.6077
5.5744	1.6227
5.5268	1.6854
5.4801	1.8036
5.4341	1.8981
5.3889	2.0215
5.3445	2.1643
5.3008	2.1834
5.2578	2.2571
5.2154	2.2964
5.1738	2.4617
5.1328	2.6997
5.0925	2.963
5.0528	3.1255
5.0137	3.2534
4.9752	3.5321
4.9373	4.0912
4.9	3.8821
4.8632	4.2461
4.827	4.7422
4.7913	4.5109
4.7561	4.702
4.7215	5.3063
4.6873	5.8427
4.6536	6.2747
4.6205	7.3557
4.5877	8.4193
4.5555	9.4634
4.5237	10.5897
4.4923	12.1913
4.4614	13.9269
4.4309	15.2164
4.4008	16.4521
4.3711	18.0248
4.3418	19.5709
4.3129	21.3414
4.2844	22.6687
4.2563	23.7401
4.2285	26.3398
4.2011	28.5041
4.174	29.8563
4.1473	30.8126
4.1209	31.6064
4.0949	32.3277
4.0692	32.8527
4.0438	33.216
4.0187	33.512
3.994	33.7143
3.9695	34.0655
3.9453	34.5862
3.9214	35.1094
3.8979	35.5584
3.8746	35.8219
3.8515	36.0161
3.8288	36.1229
3.8063	36.2844
3.7841	36.3517
3.7621	35.9941
3.7404	35.2856
3.7189	34.923
3.6977	34.6578
3.6767	34.6279
3.656	34.6244
3.6355	34.7243
3.6152	34.5562
3.5951	34.048
3.5753	33.3167
3.5557	32.4045
3.5363	31.4643
3.5171	30.3749
3.4981	29.3832
3.4793	29.0871
3.4607	28.1569
3.4423	26.899
3.4241	25.8574
3.4061	24.8623
3.3883	23.8592
3.3707	22.982
3.3533	22.1896
3.336	21.4219
3.3189	20.5755
3.302	19.6789
3.2853	18.735
3.2687	17.846
3.2523	16.9953
3.2361	16.077
3.22	15.151
3.204	14.2416
3.1883	13.405
3.1727	12.5231
3.1572	11.8173
3.1419	11.137
3.1268	10.5096
3.1117	9.9126
3.0969	9.4333
3.0821	9.1693
3.0675	8.9123
3.0531	8.6731
3.0388	8.4678
3.0246	8.2554
3.0105	8.0148
2.9966	7.8137
2.9828	7.5558
2.9692	7.2778
2.9556	7.1793
2.9422	7.0829
2.9289	6.9586
2.9157	7.0981
2.9027	7.0888
2.8897	7.2534
2.8769	7.4329
2.8642	7.4924
2.8516	7.6364
2.8391	7.5568
2.8267	7.3958
2.8144	7.1031
2.8022	6.6117
2.7902	6.0611
2.7782	5.3085
2.7664	4.7133
2.7546	4.5061
2.7429	5.0435
2.7314	5.8678
2.7199	7.6226
2.7085	10.5504
2.6973	13.243
2.6861	19.7907
2.675	24.5886
2.664	27.0707
2.6531	29.0469
2.6423	30.0841
2.6315	30.325
2.6209	30.4197
2.6103	30.7763
2.5999	31.3215
2.5895	32.1558
2.5792	32.786
2.569	33.2892
2.5588	33.9402
2.5487	34.4468
2.5388	34.6457
2.5289	34.545
2.519	34.0728
2.5093	33.5355
2.4996	33.0614
2.49	32.6474
2.4805	32.2813
2.471	31.7894
2.4616	31.1283
2.4523	30.6122
2.4431	30.4512
2.4339	30.9435
2.4248	31.8074
2.4157	32.8641
2.4068	33.7126
2.3979	34.1012
2.389	34.0295
2.3802	33.8763
2.3715	33.7884
2.3629	33.2023
2.3543	32.2422
2.3458	32.1312
2.3373	33.4325
2.3289	35.4762
2.3206	38.0151
2.3123	40.7262
2.3041	43.3799
2.2959	45.538
2.2878	47.2983
2.2798	48.2796
2.2718	48.1885
2.2638	46.9097
2.2559	44.4004
2.2481	42.1456
2.2403	41.2779
2.2326	39.8781
2.225	36.8978
2.2173	34.0091
2.2098	32.2991
2.2023	32.7422
2.1948	35.1383
2.1874	40.1045
2.18	46.0152
2.1727	51.0812
2.1655	54.3343
2.1583	56.5566
2.1511	58.1118
2.144	59.1549
2.1369	59.5237
2.1299	59.2212
2.1229	59.0718
2.116	59.4493
2.1091	60.4543
2.1023	61.8468
2.0955	63.2904
2.0887	64.6964
2.082	65.7296
2.06	68.661
2.028	67.7645
1.996	63.7975
1.964	60.9263
1.932	57.4737
1.9	53.0796
1.868	70.9764
1.836	76.1173
1.804	77.7161
1.772	77.2195
1.74	77.6598
1.708	77.4287
1.676	76.9789
1.644	75.9774
1.612	74.2081
1.58	72.8677
1.548	71.1732
1.516	69.7666
1.484	67.6411
1.452	64.3818
1.42	55.8793
1.388	52.4297
1.356	64.328
1.324	63.4103
1.292	61.62
1.26	61.0669
1.228	60.0207
1.196	58.2558
1.164	56.726
1.132	55.839
1.1	55.1587
1.068	54.8214
1.036	54.279
1.004	54.2178
0.972	53.8218
0.94	52.966
0.908	52.434
0.876	52.1039
0.844	52.4568
0.812	53.4344
0.795	53.4785
0.787	53.4569
0.779	53.3658
0.771	53.1676
0.763	52.9229
0.755	52.4326
0.747	52.2474
0.739	51.8021
0.731	51.4426
0.723	51.6852
0.715	51.3417
0.707	51.2128
0.699	50.9665
0.691	50.0777
0.683	50.0067
0.675	50.0157
0.667	49.9915
0.659	50.3758
0.651	49.7748
0.643	50.0869
0.635	50.0618
0.627	50.0588
0.619	49.8679
0.611	49.7458
0.603	49.551
0.595	50.4092
0.587	50.0135
0.579	49.8174
0.571	50.7902
0.563	50.6682
0.555	51.1906
0.547	50.6196
0.539	50.5953
0.531	50.9055
0.523	50.0164
0.515	50.0964
0.507	49.4922
0.499	48.8546
0.491	48.2732
0.483	47.7704
0.475	47.0328
0.467	45.8205
0.459	45.3451
0.451	43.9385
0.443	42.3233
0.435	41.1495
0.427	39.6583
0.419	38.5416
0.411	37.2863
0.403	35.8499
