Name: Quartz SiO2
Type: Mineral
Class: Silicates
Subclass: Tectosilicates (Silica Group)
Particle Size: Fine  (Less than 2  Micrometers)
Sample No.: quartz.2
Owner: JHU
Wavelength Range: IR
Origin: Rock Springs, Arkansas via Hunt and Salisbury Collection
Description: No solid sample was available, but the powdered sample
Measurement: Transmission
X Units: Wavelength (micrometers)
Y Units: Transmittance (percent)
wavelength	value
25.044	56.5936
24.339	82.9842
23.672	77.9529
23.041	71.3748
22.442	56.7264
21.874	32.746
21.334	32.7812
20.82	42.8085
20.33	56.4608
19.863	55.3045
19.416	49.3944
18.99	62.6659
18.581	77.8211
18.19	83.4763
17.815	85.6326
17.455	86.9802
17.109	87.6101
16.777	88.075
16.458	88.4216
16.15	88.5984
15.854	88.8797
15.568	88.9793
15.292	88.9295
15.027	88.6306
14.77	87.7517
14.521	83.3758
14.281	81.7801
14.049	86.6638
13.824	87.1096
13.607	86.3108
13.396	85.1951
13.191	82.0667
12.993	70.9608
12.8	54.7753
12.614	54.451
12.432	58.7835
12.256	84.8963
12.084	89.4275
11.918	89.1414
11.755	87.9607
11.598	86.4827
11.444	84.5428
11.294	83.0027
11.149	80.9099
11.007	78.8435
10.868	76.7166
10.733	74.3553
10.602	70.9549
10.473	67.2596
10.348	62.2508
10.225	56.5799
10.106	50.1757
9.989	43.7992
9.875	37.7074
9.763	31.9067
9.654	26.7421
9.547	22.7177
9.443	18.9013
9.341	15.2588
9.241	10.7441
9.143	11.7988
9.047	15.5468
8.954	20.6059
8.862	25.8622
8.772	29.1406
8.684	30.9623
8.597	32.7343
8.513	32.9945
8.43	37.8241
8.348	45.7811
8.268	54.1837
8.19	61.5037
8.113	66.5225
8.037	70.0274
7.963	73.0301
7.891	75.3069
7.819	77.0684
7.749	79.0518
7.68	80.8955
7.613	82.3426
7.546	83.5984
7.481	84.7266
7.417	85.7539
7.353	86.5593
7.291	87.2976
7.23	87.9571
7.17	88.5059
7.111	89.0029
7.053	89.4216
6.996	89.8484
6.94	90.3152
6.885	90.8057
6.83	91.168
6.777	91.5557
6.724	91.8425
6.672	92.1787
6.621	92.5205
6.571	92.7481
6.521	92.99
6.472	93.5381
6.424	93.9736
6.377	94.001
6.33	93.8613
6.284	93.5713
6.238	92.8655
6.194	92.3525
6.15	92.3943
6.106	92.6755
6.063	93.0281
6.021	93.4939
5.979	93.8691
5.938	94.2969
5.898	94.9246
5.858	95.5408
5.818	96.0066
5.779	96.3044
5.741	96.6768
5.703	96.8811
5.666	96.9377
5.629	96.7793
5.592	96.6003
5.556	96.6785
5.521	96.9236
5.486	97.2175
5.451	97.4763
5.417	97.489
5.383	96.8708
5.35	96.2627
5.317	96.4043
5.285	96.7029
5.252	97.2703
5.221	97.8594
5.189	98.1875
5.158	98.3203
5.128	98.3474
5.097	98.4131
5.068	98.3555
5.038	98.3787
5.009	98.405
4.98	98.5574
4.951	98.926
4.923	99.0852
4.895	99.3313
4.868	99.5305
4.84	99.6628
4.814	99.7571
4.787	99.8669
4.76	99.9104
4.734	99.988
4.709	100.05
4.683	100.101
4.658	100.154
4.633	100.266
4.608	100.329
4.584	100.448
4.56	100.427
4.536	100.441
4.512	100.441
4.488	100.473
4.465	100.498
4.442	100.564
4.42	100.629
4.397	100.688
4.375	100.828
4.353	100.795
4.331	100.915
4.309	100.935
4.288	100.985
4.267	101.033
4.246	101.122
4.225	101.205
4.205	101.243
4.184	101.3
4.164	101.325
4.144	101.385
4.124	101.372
4.105	101.414
4.085	101.463
4.066	101.464
4.047	101.508
4.028	101.52
4.009	101.482
3.991	101.471
3.973	101.492
3.954	101.624
3.936	101.66
3.918	101.764
3.901	101.801
3.883	101.742
3.866	101.751
3.849	101.851
3.832	101.838
3.815	101.914
3.798	101.961
3.781	101.955
3.765	101.921
3.748	101.94
3.732	101.891
3.716	101.927
3.7	101.887
3.685	101.887
3.669	101.795
3.653	101.865
3.638	101.795
3.623	101.712
3.608	101.684
3.593	101.668
3.578	101.674
3.563	101.674
3.548	101.587
3.534	101.484
3.519	101.375
3.505	101.221
3.491	101.213
3.477	101.145
3.463	101.09
3.449	101.057
3.435	100.894
3.422	100.823
3.408	100.76
3.395	100.677
3.382	100.562
3.369	100.59
3.355	100.43
3.342	100.32
3.33	100.239
3.317	100.084
3.304	100.012
3.292	99.8943
3.279	99.7991
3.267	99.5779
3.254	99.3621
3.242	99.2468
3.23	99.0466
3.218	98.8328
3.206	98.6218
3.194	98.4031
3.182	98.1687
3.171	97.9705
3.159	97.7771
3.148	97.5193
3.136	97.2908
3.125	97.1062
3.114	96.8757
3.102	96.6316
3.091	96.5037
3.08	96.3718
3.069	96.2234
3.058	96.0046
3.048	95.8757
3.037	95.6404
3.026	95.5515
3.016	95.324
3.005	95.1209
2.995	94.9412
2.985	94.9265
2.974	94.7459
2.964	94.696
2.954	94.6062
2.944	94.6482
2.934	94.6326
2.924	94.739
2.914	94.8337
2.904	94.9304
2.895	95.2341
2.885	95.3513
2.875	95.5515
2.866	95.738
2.856	96.0945
2.847	96.3669
2.838	96.4656
2.828	96.7888
2.819	96.9958
2.81	97.2351
2.801	97.572
2.792	97.821
2.783	98.1482
2.774	98.3982
2.765	98.7624
2.756	99.4499
2.747	100.258
2.739	101.212
2.73	102.054
2.721	102.852
2.713	103.411
2.704	103.738
2.696	104.019
2.687	104.27
2.679	104.482
2.671	104.645
2.663	104.567
2.654	104.594
2.646	104.606
2.638	104.67
2.63	104.699
2.622	104.855
2.614	104.847
2.606	104.855
2.599	104.863
2.591	104.941
2.583	105
2.575	104.927
2.568	104.857
2.56	105.14
2.553	105.05
2.545	104.976
2.538	105.3
2.53	104.994
2.523	105.045
2.515	105.117
2.508	105.14
2.501	105.299
2.494	105.244
2.486	105.41
2.479	105.533
2.472	105.418
2.465	105.588
2.458	105.515
2.451	105.64
2.444	105.431
2.437	105.832
2.43	105.574
2.424	105.494
2.417	105.619
2.41	105.789
2.403	105.715
2.397	105.791
2.39	105.738
2.384	106.109
2.377	106.211
2.37	106.05
2.364	106.14
2.358	105.922
2.351	106.187
2.345	106.277
2.338	106.439
2.332	106.4
2.326	106.422
2.32	106.429
2.313	106.617
2.307	106.556
2.301	106.611
2.295	106.742
2.289	107.01
2.283	106.726
2.277	106.861
2.271	107.094
2.265	106.957
2.259	107.14
2.253	107.375
2.247	107.058
2.241	107.308
2.236	107.781
2.23	107.523
2.224	107.414
2.218	107.832
2.213	107.773
2.207	107.722
2.201	108.082
2.196	108.058
2.19	107.91
2.185	108.289
2.179	108.297
2.174	108.304
2.168	108.437
2.163	108.687
2.157	108.465
2.152	108.734
2.147	109.004
2.141	108.629
2.136	109.094
2.131	108.969
2.126	108.992
2.12	109.316
2.115	109.379
2.11	109.66
2.105	109.211
2.1	109.66
2.095	109.648
2.09	109.754
2.085	110.031
2.079	109.66
