Name: Sanidine (K,Na)Al3O8
Type: Mineral
Class: Silicates
Subclass: Tectosilicates (Feldspar Group)
Particle Size: Coarse  (75 - 250  Micrometers)
Sample No.: sanidine.3
Owner: JHU
Wavelength Range: IR
Origin: Higasinuiro-gun, Taiji, Wakayama, Japan via the Smithsonian
Description: The sample consisted of many small (0.5 cm) euhedral
Measurement: Bidirectional reflectance
X Units: Wavelength (micrometers)
Y Units: Reflectance (percent)
wavelength	value
25.0442	4.831
24.3388	4.8616
23.6719	5.4328
23.0407	6.1162
22.4422	5.1308
21.8741	3.5576
21.334	3.272
20.8199	2.5019
20.33	1.9758
19.8627	2.1789
19.4163	2.3669
18.9896	2.6536
18.5812	3.0334
18.19	3.3396
17.815	3.4189
17.4551	4.3144
17.1094	5.0347
16.7772	5.2966
16.4576	5.0991
16.15	4.008
15.8537	3.0327
15.568	3.0481
15.2925	2.26
15.0265	1.6086
14.7697	1.7751
14.5214	1.956
14.2814	2.1479
14.0492	2.2368
13.8244	2.175
13.6067	2.0793
13.3957	2.0168
13.1912	2.0356
12.9929	2.0935
12.8004	2.0845
12.6135	1.9929
12.432	1.8657
12.2557	1.9819
12.0843	2.1999
11.9176	2.3267
11.7555	2.4094
11.5977	2.5193
11.444	2.574
11.2944	2.6721
11.1487	2.7978
11.0067	2.9033
10.8682	3.0549
10.7332	3.2607
10.6015	3.4917
10.473	3.7798
10.3476	4.1589
10.2251	4.6269
10.1056	5.1257
9.98873	5.7236
9.87458	6.2556
9.763	6.6406
9.65392	7.053
9.54724	7.5298
9.44291	7.4844
9.34082	5.9714
9.24091	5.2615
9.14312	5.2676
9.04739	5.3869
8.95363	5.7065
8.8618	6.3103
8.77183	7.0283
8.68368	7.6247
8.59727	7.6697
8.51257	7.3486
8.42951	7.1452
8.34807	7.0554
8.26819	6.7424
8.18981	5.8301
8.11292	4.4641
8.03745	3.1086
7.96337	1.9092
7.89064	0.9578
7.81924	0.3657
7.74911	0.23
7.68023	0.2925
7.61256	0.3965
7.54608	0.4932
7.48074	0.5767
7.41653	0.6509
7.35341	0.7251
7.29136	0.7825
7.23034	0.8372
7.17033	0.9062
7.11132	0.9622
7.05327	1.0124
6.99616	1.0659
6.93996	1.1064
6.88467	1.134
6.83024	1.1543
6.77667	1.1809
6.72393	1.2009
6.67201	1.228
6.62089	1.2515
6.57054	1.269
6.52095	1.2749
6.4721	1.2922
6.42398	1.2876
6.37657	1.2776
6.32986	1.2754
6.28382	1.2622
6.23845	1.2656
6.19373	1.2673
6.14965	1.2964
6.10619	1.3157
6.06334	1.3445
6.02109	1.3665
5.97942	1.3801
5.93832	1.3896
5.89778	1.3823
5.8578	1.3706
5.81835	1.3477
5.77943	1.3425
5.74103	1.3381
5.70314	1.3262
5.66574	1.321
5.62883	1.3293
5.5924	1.3484
5.55644	1.3918
5.52093	1.4402
5.48588	1.5063
5.45127	1.5735
5.41709	1.6445
5.38334	1.7082
5.35	1.7624
5.31708	1.821
5.28456	1.8835
5.25243	1.9683
5.2207	2.0933
5.18934	2.2471
5.15836	2.4402
5.12775	2.6518
5.09749	2.8962
5.0676	3.1601
5.03805	3.4141
5.00884	3.6328
4.97998	3.7568
4.95144	3.7898
4.92322	3.7715
4.89533	3.7187
4.86775	3.7009
4.84048	3.7136
4.81351	3.7468
4.78684	3.7768
4.76047	3.8066
4.73439	3.8376
4.70859	3.8677
4.68306	3.9282
4.65782	4.0085
4.63284	4.133
4.60814	4.2893
4.58369	4.4758
4.5595	4.6955
4.53557	4.9289
4.51188	5.1828
4.48845	5.4534
4.46525	5.72
4.44229	6.0046
4.41957	6.2798
4.39708	6.551
4.37481	6.8318
4.35277	7.1233
4.33096	7.4062
4.30935	7.6794
4.28797	7.9612
4.26679	8.2107
4.24583	8.426
4.22506	8.6086
4.2045	8.76
4.18414	8.8882
4.16398	8.9743
4.14401	9.0327
4.12423	9.091
4.10464	9.1386
4.08523	9.1865
4.066	9.2226
4.04696	9.2446
4.02809	9.2695
4.0094	9.2776
3.99088	9.3056
3.97253	9.3288
3.95435	9.3572
3.93634	9.3962
3.91848	9.4292
3.90079	9.4668
3.88326	9.4944
3.86589	9.5239
3.84867	9.5632
3.8316	9.6037
3.81468	9.644
3.79791	9.6885
3.78129	9.7297
3.76482	9.7741
3.74848	9.8008
3.73229	9.8371
3.71624	9.863
3.70032	9.8879
3.68454	9.9089
3.6689	9.9248
3.65338	9.9624
3.638	9.9819
3.62275	10.0031
3.60762	10.0105
3.59262	10.031
3.57775	10.0432
3.56299	10.0493
3.54836	10.0503
3.53385	10.0434
3.51945	10.0376
3.50517	9.989
3.49101	10.0124
3.47696	10.0261
3.46303	10.0207
3.4492	10.0029
3.43549	9.9721
3.42188	9.9092
3.40838	9.9045
3.39499	9.9519
3.38171	9.9651
3.36852	9.9804
3.35544	9.979
3.34246	10.0056
3.32958	10.0056
3.3168	9.9795
3.30411	9.9795
3.29153	9.9699
3.27903	9.9651
3.26664	9.9385
3.25433	9.9287
3.24212	9.9265
3.23	9.9089
3.21797	9.9048
3.20603	9.8989
3.19418	9.893
3.18241	9.8808
3.17074	9.8701
3.15914	9.8752
3.14763	9.8718
3.13621	9.8525
3.12487	9.8559
3.11361	9.8493
3.10243	9.8542
3.09133	9.8425
3.0803	9.8481
3.06936	9.8315
3.0585	9.8327
3.04771	9.8364
3.037	9.8239
3.02636	9.8235
3.0158	9.8298
3.00531	9.8137
2.99489	9.8054
2.98454	9.8347
2.97427	9.8103
2.96407	9.8
2.95393	9.7832
2.94387	9.7783
2.93387	9.7746
2.92394	9.737
2.91408	9.7385
2.90429	9.7363
2.89456	9.7285
2.88489	9.7475
2.87529	9.7453
2.86576	9.7427
2.85628	9.7478
2.84687	9.7248
2.83752	9.6953
2.82823	9.6496
2.81901	9.6635
2.80984	9.6321
2.80073	9.6025
2.79168	9.6076
2.78269	9.5888
2.77376	9.6076
2.76488	9.5544
2.75606	9.4951
2.7473	9.4651
2.73859	9.4062
2.72994	9.2744
2.72134	8.978
2.7128	9.2126
2.70431	9.4787
2.69587	9.7781
2.68748	9.9189
2.67915	9.9914
2.67087	10.0083
2.66264	10.0422
2.65446	10.0468
2.64633	10.0373
2.63825	10.0232
2.63021	10.021
2.62223	10.0144
2.6143	10.008
2.60641	9.9914
2.59857	10.0063
2.59078	9.977
2.58304	9.9741
2.57534	9.9646
2.56768	9.9702
2.56008	9.9524
2.55251	9.9382
2.54499	9.9338
2.53752	9.9133
2.53009	9.8989
2.5227	9.8767
2.51536	9.8379
2.50806	9.8501
2.5008	9.8469
2.49358	9.8186
2.4864	9.8008
2.47927	9.7802
2.47218	9.7905
2.46512	9.7524
2.45811	9.7392
2.45114	9.7214
2.4442	9.6977
2.43731	9.6875
2.43045	9.6963
2.42363	9.6828
2.41685	9.6633
2.41011	9.6682
2.40341	9.6338
2.39674	9.6074
2.39011	9.6001
2.38352	9.6094
2.37696	9.5678
2.37044	9.5625
2.36395	9.5407
2.35751	9.5351
2.35109	9.5498
2.34471	9.4883
2.33836	9.5005
2.33205	9.4629
2.32578	9.4443
2.31953	9.4341
2.31332	9.4365
2.30714	9.4438
2.301	9.4104
2.29489	9.4128
2.28881	9.4118
2.28276	9.3718
2.27675	9.3911
2.27076	9.3528
2.26481	9.3733
2.25889	9.3706
2.253	9.3259
2.24714	9.3408
2.24131	9.3095
2.23551	9.3469
2.22974	9.3296
2.224	9.3093
2.21829	9.3159
2.21261	9.3103
2.20696	9.2969
2.20134	9.2392
2.19574	9.292
2.19018	9.302
2.18464	9.3208
2.17913	9.2969
2.17365	9.2639
2.16819	9.29
2.16277	9.3296
2.15737	9.2871
2.15199	9.2629
2.14665	9.3081
2.14133	9.2656
2.13603	9.2463
2.13077	9.2851
2.12552	9.2842
2.12031	9.2832
2.11512	9.2886
2.10995	9.3271
2.10481	9.2893
2.0997	9.3022
2.09461	9.3498
2.08954	9.3257
2.0845	9.3369
2.07948	9.3098
