Name: Hornblende Schist
Type: Rocks
Class: Metamorphic
Subclass: Schist
Particle Size: 500-1500 Micrometer
Sample No.: schist9.doc
Owner: JHU
Wavelength Range: All
Origin: Sample No. 393, The Hunt and Salisbury Collection at the U.S.
Description: This low grade schist is a very coarse-grained rock composed of
Measurement: Directional (10 Degree) Hemispherical Reflectance
X Units: Wavelength (micrometers)
Y Units: Reflectance (percent)
wavelength	value
0.4	11.0948
0.408	11.0722
0.416	11.3996
0.424	11.5607
0.432	12.0266
0.44	12.0986
0.448	12.3199
0.456	12.4804
0.464	12.5085
0.472	12.7243
0.48	12.9941
0.488	13.0595
0.496	13.1655
0.504	13.5031
0.512	13.5199
0.52	13.5976
0.528	13.5498
0.536	13.6177
0.544	13.6579
0.552	13.5338
0.56	13.7215
0.568	13.6285
0.576	13.4369
0.584	13.4256
0.592	13.2816
0.6	13.3475
0.608	13.1854
0.616	13.1042
0.624	12.9538
0.632	12.9904
0.64	12.8221
0.648	12.8505
0.656	12.6374
0.664	12.5875
0.672	12.4973
0.68	12.4555
0.688	12.4509
0.696	12.3468
0.704	12.4582
0.712	12.4541
0.72	12.5297
0.728	12.5564
0.736	12.6023
0.744	12.6207
0.752	12.5451
0.76	12.713
0.768	12.6927
0.776	12.8171
0.784	12.8527
0.792	12.8269
0.8	12.9725
0.832	12.4761
0.864	12.2199
0.896	12.2411
0.928	12.0445
0.96	12.2606
0.992	12.3548
1.024	12.4542
1.056	12.3523
1.088	12.4637
1.12	12.5959
1.152	13.0128
1.184	13.6923
1.216	14.0216
1.248	14.7339
1.28	15.4771
1.312	16.4709
1.344	17.633
1.376	18.2328
1.408	17.6139
1.44	20.4645
1.472	21.6959
1.504	22.6204
1.536	23.2078
1.568	24.4341
1.6	25.577
1.632	26.8497
1.664	27.6972
1.696	28.6484
1.728	29.4718
1.76	30.2753
1.792	30.8681
1.824	31.1285
1.856	31.1953
1.888	31.1079
1.92	31.3814
1.952	31.1063
1.984	30.606
2.016	31.335
2.048	32.4335
2.079	32.4241
2.086	32.3616
2.093	32.2998
2.1	32.125
2.107	31.9415
2.113	31.7705
2.12	31.6554
2.127	31.4712
2.134	31.3809
2.141	31.1898
2.148	31.0712
2.156	30.8625
2.163	30.464
2.17	29.8862
2.177	28.9315
2.185	27.791
2.192	26.863
2.2	26.499
2.207	26.6936
2.215	27.6409
2.222	28.0075
2.23	27.6381
2.237	26.6318
2.245	24.6504
2.253	23.0455
2.261	22.9093
2.269	23.7337
2.277	24.3018
2.285	23.6944
2.293	22.2408
2.301	20.8504
2.309	19.7623
2.317	18.9699
2.326	18.4131
2.334	17.7183
2.343	17.1564
2.351	17.3522
2.36	18.2514
2.368	19.5641
2.377	20.6643
2.386	21.2831
2.394	21.5744
2.403	21.6921
2.412	21.8721
2.421	22.0727
2.43	22.1101
2.44	22.2657
2.449	22.4606
2.458	22.466
2.467	22.3952
2.477	22.1991
2.486	21.9381
2.496	21.7522
2.506	21.6942
2.515	21.6002
2.525	21.4839
2.535	21.4456
2.545	21.4972
2.555	21.5033
2.565	21.5173
2.575	21.6075
2.586	21.6192
2.596	21.3624
2.606	21.0543
2.617	20.778
2.627	20.5845
2.638	20.5862
2.649	20.2629
2.66	19.5941
2.671	18.9507
2.682	18.1891
2.693	14.7621
2.704	11.4733
2.716	8.4001
2.727	6.4089
2.739	5.4922
2.75	4.8841
2.762	4.8445
2.774	5.2443
2.786	5.4778
2.798	5.6035
2.81	5.6135
2.822	5.6661
2.834	5.7523
2.847	5.8034
2.859	5.8074
2.872	5.7234
2.885	5.5903
2.898	5.4266
2.911	5.371
2.924	5.2599
2.937	5.2935
2.951	5.3404
2.964	5.4316
2.978	5.5775
2.991	5.7816
3.005	6.0094
3.019	6.2444
3.033	6.4871
3.048	6.8615
3.062	7.2186
3.077	7.594
3.091	7.9743
3.106	8.41
3.121	8.9102
3.136	9.3973
3.152	9.9029
3.167	10.4265
3.182	10.8902
3.198	11.3582
3.214	11.823
3.23	12.3012
3.246	12.7113
3.263	13.0654
3.279	13.3656
3.296	13.5946
3.313	13.5859
3.33	13.6439
3.347	13.3138
3.364	13.5568
3.382	13.8398
3.399	14.0754
3.417	14.2331
3.436	14.4105
3.454	14.4619
3.472	14.3094
3.491	14.729
3.51	15.3476
3.529	16.3401
3.548	17.1189
3.568	17.6522
3.588	18.2315
3.608	18.6026
3.628	18.8441
3.648	19.0303
3.669	19.1409
3.69	19.1953
3.711	19.1972
3.732	19.1823
3.754	19.2039
3.776	18.8844
3.798	18.2535
3.82	17.6695
3.843	17.3941
3.866	17.2617
3.889	17.0635
3.913	16.888
3.936	16.4412
3.96	15.4032
3.985	15.1505
4.009	16.2629
4.034	17.2928
4.06	18.2171
4.085	18.5716
4.111	18.6213
4.137	18.5427
4.164	18.388
4.191	18.1616
4.218	17.9033
4.246	17.603
4.274	17.2099
4.302	16.8395
4.331	16.4364
4.36	15.8719
4.39	15.0575
4.42	14.1033
4.45	13.4087
4.481	12.9832
4.512	12.7222
4.543	12.3298
4.576	11.6224
4.608	10.8575
4.641	10.1454
4.675	9.4677
4.709	9.1382
4.743	8.6644
4.778	8.0844
4.814	7.589
4.849	7.0569
4.886	6.53
4.923	5.9893
4.961	5.7163
4.999	5.4555
5.038	5.3194
5.077	5.1647
5.118	5.0565
5.158	4.9002
5.2	4.742
5.242	4.495
5.285	4.2672
5.328	4.0957
5.372	4.0448
5.417	4.0147
5.463	3.876
5.509	3.668
5.556	3.4364
5.604	3.4056
5.653	3.3647
5.703	3.3429
5.754	3.2676
5.805	3.1935
5.858	3.0978
5.911	2.9952
5.966	2.9417
6.021	2.9604
6.078	2.8925
6.135	2.8543
6.194	2.7599
6.253	2.8394
6.314	3.0121
6.377	3.3924
6.44	3.8457
6.505	3.9593
6.571	3.9631
6.638	3.9129
6.707	3.764
6.777	3.6311
6.848	3.5143
6.921	3.4123
6.996	3.332
7.072	3.2103
7.151	2.7726
7.23	2.5266
7.312	2.4091
7.395	2.3056
7.481	2.192
7.568	2.0776
7.657	2.0525
7.749	2.0397
7.843	2.0406
7.939	2.3274
8.037	2.7641
8.138	3.6794
8.242	4.6579
8.348	5.1924
8.457	5.3646
8.569	5.7764
8.684	6.3893
8.802	6.5631
8.923	6.8139
9.047	7.4765
9.175	8.8062
9.307	10.5715
9.443	11.2919
9.582	11.4493
9.726	11.6144
9.875	12.0016
10.027	12.0371
10.185	10.7796
10.348	9.4501
10.515	8.1917
10.689	6.8802
10.868	5.838
11.054	5.4131
11.246	5.3123
11.444	4.6518
11.65	4.0957
11.863	3.5489
12.084	3.1186
12.314	2.8082
12.552	2.9848
12.8	3.0919
13.058	2.982
13.327	3.0511
13.607	2.671
13.899	2.5671
14.203	2.4899
14.521	2.5716
14.854	2.6038
