Name: Rhodonite (Mn+2,Fe+2,Mg,Ca)SiO3
Type: Mineral
Class: Silicates
Subclass: Inosilicates (chain silicates); (Pyroxenoid Group)
Particle Size: Coarse  (75 - 250  Micrometers)
Sample No.: rhodon.1
Owner: JHU
Wavelength Range: IR
Origin: Franklin, New Jersey via the Smithsonian (sample no. NMNH
Description: The hand sample was composed of two fragments, each
Measurement: Bidirectional reflectance
X Units: Wavelength (micrometers)
Y Units: Reflectance (percent)
wavelength	value
25.0442	2.6599
24.3388	2.8032
23.6719	2.8613
23.0407	3.1699
22.4422	3.9871
21.8741	4.269
21.334	4.3061
20.8199	4.2344
20.33	3.9863
19.8627	3.8652
19.4163	4.1199
18.9896	4.02
18.5812	2.8743
18.19	1.7429
17.815	2.5994
17.4551	3.1431
17.1094	2.946
16.7772	2.0088
16.4576	1.3164
16.15	1.3796
15.8537	1.4907
15.568	1.5569
15.2925	1.5745
15.0265	1.7932
14.7697	1.4458
14.5214	1.562
14.2814	1.5615
14.0492	1.6206
13.8244	1.688
13.6067	1.5063
13.3957	1.6301
13.1912	1.7031
12.9929	1.7087
12.8004	1.7761
12.6135	1.8066
12.432	1.8557
12.2557	1.8738
12.0843	1.9331
11.9176	2.0037
11.7555	2.1135
11.5977	2.3489
11.444	2.55
11.2944	2.6018
11.1487	3.2026
11.0067	3.4075
10.8682	3.2402
10.7332	3.0325
10.6015	2.9514
10.473	4.1675
10.3476	3.5771
10.2251	3.2146
10.1056	3.4648
9.98873	3.3401
9.87458	3.9145
9.763	3.968
9.65392	3.4126
9.54724	2.8928
9.44291	3.5212
9.34082	3.6833
9.24091	3.6902
9.14312	3.9333
9.04739	4.3125
8.95363	4.4038
8.8618	4.5347
8.77183	3.633
8.68368	2.3669
8.59727	1.0535
8.51257	0.3423
8.42951	0.3691
8.34807	0.4773
8.26819	0.5835
8.18981	0.6597
8.11292	0.731
8.03745	0.772
7.96337	0.8098
7.89064	0.852
7.81924	0.8811
7.74911	0.9329
7.68023	0.9895
7.61256	1.0598
7.54608	1.1199
7.48074	1.1609
7.41653	1.208
7.35341	1.2549
7.29136	1.2895
7.23034	1.3337
7.17033	1.3713
7.11132	1.4409
7.05327	1.4834
6.99616	1.5071
6.93996	1.519
6.88467	1.5532
6.83024	1.5984
6.77667	1.6477
6.72393	1.6885
6.67201	1.709
6.62089	1.7144
6.57054	1.6787
6.52095	1.6223
6.4721	1.5823
6.42398	1.5073
6.37657	1.4668
6.32986	1.4231
6.28382	1.4255
6.23845	1.4387
6.19373	1.4365
6.14965	1.4443
6.10619	1.4536
6.06334	1.4499
6.02109	1.4382
5.97942	1.4089
5.93832	1.3652
5.89778	1.344
5.8578	1.4246
5.81835	1.5305
5.77943	1.5652
5.74103	1.5156
5.70314	1.4697
5.66574	1.4531
5.62883	1.4668
5.5924	1.5
5.55644	1.5669
5.52093	1.6755
5.48588	1.8206
5.45127	1.9175
5.41709	1.9104
5.38334	1.8186
5.35	1.7117
5.31708	1.634
5.28456	1.604
5.25243	1.5776
5.2207	1.572
5.18934	1.5725
5.15836	1.5727
5.12775	1.5879
5.09749	1.6382
5.0676	1.7339
5.03805	1.8081
5.00884	1.8599
4.97998	1.9895
4.95144	2.1128
4.92322	2.1904
4.89533	2.2659
4.86775	2.3533
4.84048	2.4009
4.81351	2.4695
4.78684	2.5754
4.76047	2.7668
4.73439	2.9768
4.70859	3.2017
4.68306	3.4495
4.65782	3.7046
4.63284	3.9961
4.60814	4.22
4.58369	4.4534
4.5595	4.6621
4.53557	4.8843
4.51188	5.0159
4.48845	5.094
4.46525	5.1216
4.44229	5.1455
4.41957	5.1406
4.39708	5.1406
4.37481	5.1355
4.35277	5.1245
4.33096	5.1289
4.30935	5.1265
4.28797	5.1316
4.26679	5.1521
4.24583	5.1587
4.22506	5.186
4.2045	5.1933
4.18414	5.2085
4.16398	5.2126
4.14401	5.2214
4.12423	5.2353
4.10464	5.2546
4.08523	5.2903
4.066	5.332
4.04696	5.386
4.02809	5.4617
4.0094	5.5486
3.99088	5.6357
3.97253	5.7309
3.95435	5.8262
3.93634	5.9082
3.91848	5.9934
3.90079	6.0578
3.88326	6.1326
3.86589	6.1804
3.84867	6.2226
3.8316	6.2644
3.81468	6.3064
3.79791	6.3244
3.78129	6.3364
3.76482	6.3242
3.74848	6.3083
3.73229	6.2749
3.71624	6.2283
3.70032	6.1719
3.68454	6.1096
3.6689	6.0393
3.65338	5.9746
3.638	5.9111
3.62275	5.833
3.60762	5.7781
3.59262	5.7256
3.57775	5.6728
3.56299	5.6201
3.54836	5.5911
3.53385	5.5608
3.51945	5.5317
3.50517	5.498
3.49101	5.5054
3.47696	5.5119
3.46303	5.5134
3.4492	5.5249
3.43549	5.53
3.42188	5.5173
3.40838	5.5347
3.39499	5.5801
3.38171	5.6025
3.36852	5.6157
3.35544	5.6518
3.34246	5.6658
3.32958	5.6804
3.3168	5.6814
3.30411	5.6826
3.29153	5.6543
3.27903	5.6435
3.26664	5.6184
3.25433	5.5908
3.24212	5.562
3.23	5.5071
3.21797	5.4519
3.20603	5.3818
3.19418	5.3279
3.18241	5.249
3.17074	5.1799
3.15914	5.082
3.14763	5.0049
3.13621	4.9214
3.12487	4.8635
3.11361	4.8271
3.10243	4.7922
3.09133	4.7595
3.0803	4.7305
3.06936	4.7368
3.0585	4.7204
3.04771	4.7261
3.037	4.7038
3.02636	4.6711
3.0158	4.6645
3.00531	4.6367
2.99489	4.5996
2.98454	4.5427
2.97427	4.4692
2.96407	4.3967
2.95393	4.3713
2.94387	4.3701
2.93387	4.3684
2.92394	4.3633
2.91408	4.3342
2.90429	4.2309
2.89456	4.1799
2.88489	4.187
2.87529	4.1406
2.86576	4.2161
2.85628	4.426
2.84687	4.655
2.83752	4.8398
2.82823	4.9519
2.81901	5.0874
2.80984	5.1391
2.80073	5.1687
2.79168	5.385
2.78269	5.5713
2.77376	5.2483
2.76488	5.237
2.75606	5.1882
2.7473	4.5503
2.73859	6.7341
2.72994	7.5386
2.72134	7.9958
2.7128	8.3325
2.70431	8.5351
2.69587	8.6968
2.68748	8.7815
2.67915	8.8774
2.67087	8.8882
2.66264	8.9465
2.65446	8.9712
2.64633	8.9929
2.63825	8.9841
2.63021	8.989
2.62223	8.9721
2.6143	8.9761
2.60641	8.987
2.59857	9
2.59078	9.009
2.58304	8.9736
2.57534	8.9922
2.56768	8.9834
2.56008	8.9621
2.55251	8.9573
2.54499	8.9765
2.53752	8.9641
2.53009	8.916
2.5227	8.8803
2.51536	8.8965
2.50806	8.8774
2.5008	8.8706
2.49358	8.8784
2.4864	8.8325
2.47927	8.8615
2.47218	8.852
2.46512	8.8442
2.45811	8.8222
2.45114	8.8384
2.4442	8.79
2.43731	8.7812
2.43045	8.7861
2.42363	8.7815
2.41685	8.7846
2.41011	8.7732
2.40341	8.7551
2.39674	8.7173
2.39011	8.7273
2.38352	8.6704
2.37696	8.6618
2.37044	8.7153
2.36395	8.6985
2.35751	8.7207
2.35109	8.6753
2.34471	8.6443
2.33836	8.6269
2.33205	8.6511
2.32578	8.6252
2.31953	8.6745
2.31332	8.6653
2.30714	8.647
2.301	8.6516
2.29489	8.6382
2.28881	8.6716
2.28276	8.6267
2.27675	8.6228
2.27076	8.605
2.26481	8.6391
2.25889	8.5976
2.253	8.6553
2.24714	8.6572
2.24131	8.6684
2.23551	8.6636
2.22974	8.6789
2.224	8.6374
2.21829	8.657
2.21261	8.6753
2.20696	8.6548
2.20134	8.6518
2.19574	8.6609
2.19018	8.7226
2.18464	8.6919
2.17913	8.6826
2.17365	8.7109
2.16819	8.7038
2.16277	8.7322
2.15737	8.7041
2.15199	8.7236
2.14665	8.7927
2.14133	8.7522
2.13603	8.78
2.13077	8.7932
2.12552	8.8396
2.12031	8.7883
2.11512	8.8403
2.10995	8.8413
2.10481	8.9077
2.0997	8.8594
2.09461	8.8672
2.08954	8.9099
2.0845	8.8835
2.07948	8.9353
