Name: Clinochlore (Fe+2,Mg)5Al(Si3Al)O10(OH)8
Type: Mineral
Class: Silicates
Subclass: Phyllosilicates (sheet silicates) (Chlorite Group)
Particle Size: Fine (less than 2 Micrometers)
Sample No.: clinochl.2
Owner: JHU
Wavelength Range: IR
Origin: Hunt and Salisbury Collection (from the Clay Mineral Society
Description: The sample was made up of green chunks of coarsely
Measurement: Transmission
X Units: Wavelength (micrometers)
Y Units: Transmittance (percent)
wavelength	value
25.044	67.633
24.339	64.816
23.672	57.648
23.041	43.666
22.442	45.277
21.874	44.469
21.334	49.578
20.82	57.783
20.33	63.23
19.863	67.648
19.416	71.777
18.99	75.64
18.581	76.696
18.19	77.705
17.815	82.381
17.455	85.004
17.109	85.502
16.777	84.641
16.458	82.615
16.15	78.808
15.854	73.559
15.568	67.937
15.292	64.732
15.027	66.98
14.77	69.445
14.521	72.964
14.281	75.459
14.049	76.284
13.824	76.549
13.607	76.252
13.396	73.832
13.191	71.482
12.993	72.709
12.8	74.727
12.614	77.14
12.432	78.699
12.256	79.821
12.084	81.65
11.918	84.053
11.755	84.561
11.598	83.371
11.444	82.067
11.294	81.03
11.149	79.049
11.007	76.629
10.868	72.976
10.733	66.663
10.602	57.131
10.473	50.182
10.348	44.317
10.225	39.911
10.106	38.576
9.989	42.328
9.875	47.067
9.763	52.694
9.654	59.737
9.547	65.991
9.443	71.75
9.341	76.387
9.241	80.465
9.143	84.01
9.047	86.18
8.954	87.854
8.862	89.246
8.772	90.318
8.684	91.239
8.597	91.859
8.513	92.735
8.43	93.342
8.348	93.925
8.268	94.358
8.19	94.762
8.113	94.993
8.037	95.282
7.963	95.448
7.891	95.586
7.819	95.711
7.749	96.034
7.68	96.243
7.613	96.311
7.546	96.502
7.481	96.591
7.417	96.714
7.353	96.863
7.291	96.958
7.23	97.015
7.17	96.971
7.111	97.106
7.053	97.27
6.996	97.383
6.94	97.301
6.885	97.435
6.83	97.589
6.777	97.646
6.724	97.707
6.672	97.693
6.621	97.601
6.571	97.62
6.521	97.533
6.472	97.439
6.424	97.454
6.377	97.404
6.33	97.363
6.284	97.333
6.239	97.222
6.194	97.298
6.15	97.581
6.106	97.499
6.063	97.331
6.021	97.069
5.979	96.768
5.938	97.39
5.898	97.869
5.858	98.092
5.818	98.217
5.779	98.371
5.741	98.533
5.703	98.671
5.666	98.787
5.629	98.854
5.592	98.906
5.556	99.017
5.521	99.041
5.486	99.072
5.451	99.194
5.417	99.189
5.383	99.216
5.35	99.273
5.317	99.375
5.285	99.439
5.252	99.534
5.221	99.655
5.189	99.704
5.158	99.779
5.128	99.8
5.098	99.838
5.068	99.894
5.038	99.924
5.009	99.934
4.98	100.01
4.951	100.05
4.923	100.09
4.895	100.17
4.868	100.31
4.84	100.35
4.814	100.36
4.787	100.42
4.761	100.43
4.734	100.5
4.709	100.56
4.683	100.62
4.658	100.63
4.633	100.66
4.608	100.69
4.584	100.75
4.559	100.77
4.536	100.84
4.512	100.86
4.488	100.89
4.465	100.91
4.442	100.99
4.42	100.99
4.397	101.04
4.375	101.05
4.353	101.06
4.331	101.07
4.309	101.11
4.288	101.15
4.267	101.18
4.246	101.22
4.225	101.25
4.205	101.26
4.184	101.28
4.164	101.29
4.144	101.34
4.124	101.29
4.105	101.38
4.085	101.38
4.066	101.36
4.047	101.45
4.028	101.44
4.009	101.4
3.991	101.39
3.973	101.46
3.954	101.46
3.936	101.49
3.918	101.58
3.901	101.58
3.883	101.54
3.866	101.52
3.849	101.54
3.832	101.56
3.815	101.49
3.798	101.59
3.781	101.59
3.765	101.55
3.748	101.55
3.732	101.52
3.716	101.5
3.7	101.47
3.684	101.42
3.669	101.39
3.653	101.36
3.638	101.33
3.623	101.35
3.608	101.23
3.593	101.23
3.578	101.18
3.563	101.2
3.548	101.14
3.534	101.12
3.519	101.2
3.505	101.38
3.491	101.23
3.477	100.98
3.463	100.96
3.449	101.03
3.436	101.1
3.422	101.26
3.408	101
3.395	100.68
3.382	100.53
3.369	100.35
3.355	100.11
3.342	99.898
3.33	99.803
3.317	99.697
3.304	99.539
3.292	99.371
3.279	99.15
3.267	98.966
3.254	98.771
3.242	98.575
3.23	98.296
3.218	98.06
3.206	97.76
3.194	97.534
3.182	97.174
3.171	96.924
3.159	96.49
3.148	96.02
3.136	95.61
3.125	95.168
3.114	94.696
3.102	94.153
3.091	93.707
3.08	93.076
3.069	92.398
3.059	91.551
3.048	90.896
3.037	89.961
3.026	89.048
3.016	88.195
3.005	87.418
2.995	86.684
2.985	86.017
2.974	85.262
2.964	84.285
2.954	83.515
2.944	82.692
2.934	81.934
2.924	81.422
2.914	81.36
2.904	81.902
2.895	82.73
2.885	83.579
2.875	84.126
2.866	84.185
2.856	83.915
2.847	83.347
2.837	82.32
2.828	81.082
2.819	79.7
2.81	79.051
2.801	79.723
2.792	82.134
2.783	86.075
2.774	89.708
2.765	91.841
2.756	93.091
2.747	94.418
2.739	95.886
2.73	97.504
2.721	99.203
2.713	100.75
2.704	101.29
2.696	101.97
2.688	102.38
2.679	102.49
2.671	102.78
2.663	102.87
2.655	102.98
2.646	102.95
2.638	103.14
2.63	103.03
2.622	103.28
2.614	103.44
2.606	103.31
2.599	103.32
2.591	103.53
2.583	103.54
2.575	103.56
2.568	103.55
2.56	103.6
2.553	103.73
2.545	103.73
2.538	103.67
2.53	103.56
2.523	103.74
2.515	103.8
2.508	103.77
2.501	103.9
2.494	103.83
2.486	103.84
2.479	104.05
2.472	103.89
2.465	103.93
2.458	104.04
2.451	104.1
2.444	103.96
2.437	104.06
2.43	104.1
2.424	104.14
2.417	104.05
2.41	104.31
2.403	104.04
2.397	104.13
2.39	103.93
2.384	104.43
2.377	104.48
2.37	104.46
2.364	104.33
2.357	104.21
2.351	104.21
2.345	104.07
2.338	104.48
2.332	104.49
2.326	104.51
2.32	104.7
2.313	104.67
2.307	104.69
2.301	104.53
2.295	104.75
2.289	104.77
2.283	104.71
2.277	104.94
2.271	104.94
2.265	104.82
2.259	105.18
2.253	105.18
2.247	104.92
2.241	105.18
2.236	105.41
2.23	105.3
2.224	105.08
2.218	105.33
2.213	105.52
2.207	105.3
2.201	105.44
2.196	105.77
2.19	105.58
2.185	105.69
2.179	105.75
2.174	105.77
2.168	105.91
2.163	105.94
2.157	105.48
2.152	106.17
2.147	105.84
2.141	106.24
2.136	106.3
2.131	105.87
2.126	105.88
2.12	106.12
2.115	106.26
2.11	106.23
2.105	106.08
2.1	106.44
2.095	106.29
2.09	106.28
2.084	106.22
2.079	106.1
