Name: Topaz Al2SiO4(F,OH)2
Type: Mineral
Class: Silicates
Subclass: Nesosilicates (Isolated tetrahedra)
Particle Size: Fine (0 - 74 Micrometers)
Sample No.: topaz.1
Owner: JHU
Wavelength Range: IR
Origin: Rhondonia, Brazil via Don Hoover, USGS
Description: The sample was a 1 cm x 1 cm x 1 cm fragment of a
Measurement: Bidirectional reflectance
X Units: Wavelength (micrometers)
Y Units: Reflectance (percent)
wavelength	value
25.0442	1.9023
24.3388	1.918
23.6719	2.0518
23.0407	2.313
22.4422	3.1836
21.8741	3.8442
21.334	3.0249
20.8199	2.5571
20.33	2.6113
19.8627	2.5872
19.4163	1.9477
18.9896	2.2666
18.5812	2.4539
18.19	2.7546
17.815	1.4404
17.4551	1.1848
17.1094	1.3271
16.7772	1.6011
16.4576	2.2341
16.15	3.0913
15.8537	3.3071
15.568	3.3396
15.2925	3.3472
15.0265	3.2366
14.7697	2.5715
14.5214	1.6047
14.2814	0.5403
14.0492	0.4014
13.8244	0.9009
13.6067	1.6218
13.3957	2.0352
13.1912	2.0571
12.9929	1.5972
12.8004	2.1433
12.6135	2.2358
12.432	2.1121
12.2557	1.9634
12.0843	1.8115
11.9176	1.8262
11.7555	2.0395
11.5977	2.6853
11.444	3.1833
11.2944	3.3457
11.1487	3.2893
11.0067	3.135
10.8682	3.1738
10.7332	3.1116
10.6015	3.6633
10.473	3.8611
10.3476	3.844
10.2251	3.5317
10.1056	3.0461
9.98873	3.3169
9.87458	3.8284
9.763	3.9565
9.65392	4.0788
9.54724	4.2798
9.44291	4.074
9.34082	3.5139
9.24091	2.7566
9.14312	1.8396
9.04739	1.0327
8.95363	0.448
8.8618	0.1636
8.77183	0.1753
8.68368	0.3159
8.59727	0.4104
8.51257	0.4211
8.42951	0.2505
8.34807	0.4548
8.26819	0.8108
8.18981	1.241
8.11292	1.7075
8.03745	2.1309
7.96337	2.5598
7.89064	3.0488
7.81924	3.5598
7.74911	3.9883
7.68023	4.2395
7.61256	4.4946
7.54608	4.7368
7.48074	4.9944
7.41653	5.251
7.35341	5.6064
7.29136	5.8994
7.23034	6.1394
7.17033	6.355
7.11132	6.5488
7.05327	6.6499
6.99616	6.7751
6.93996	6.9787
6.88467	7.2136
6.83024	7.323
6.77667	7.3611
6.72393	7.4284
6.67201	7.6018
6.62089	7.8513
6.57054	8.0491
6.52095	8.1606
6.4721	8.2727
6.42398	8.4197
6.37657	8.5942
6.32986	8.7478
6.28382	8.8301
6.23845	8.9536
6.19373	9.0986
6.14965	9.2375
6.10619	9.3374
6.06334	9.5334
6.02109	9.7798
5.97942	9.9668
5.93832	9.7968
5.89778	9.4807
5.8578	9.2029
5.81835	8.6987
5.77943	8.5429
5.74103	8.7163
5.70314	8.7146
5.66574	8.2658
5.62883	7.4809
5.5924	6.4421
5.55644	5.6411
5.52093	5.3747
5.48588	5.4558
5.45127	5.7036
5.41709	5.8799
5.38334	5.8359
5.35	5.9551
5.31708	6.3096
5.28456	6.7026
5.25243	7.3491
5.2207	8.3313
5.18934	9.1592
5.15836	9.7248
5.12775	10.1277
5.09749	10.5718
5.0676	10.9697
5.03805	11.2256
5.00884	11.3625
4.97998	11.2524
4.95144	11.1176
4.92322	11.6648
4.89533	12.4182
4.86775	12.9204
4.84048	13.2055
4.81351	13.4067
4.78684	13.5407
4.76047	13.6047
4.73439	13.6469
4.70859	13.6777
4.68306	13.7158
4.65782	13.7282
4.63284	13.7119
4.60814	13.7395
4.58369	13.7878
4.5595	13.8422
4.53557	13.8945
4.51188	13.957
4.48845	13.9983
4.46525	14.0212
4.44229	14.0473
4.41957	14.0393
4.39708	13.9763
4.37481	13.8012
4.35277	13.2912
4.33096	12.0669
4.30935	11.1418
4.28797	12.6342
4.26679	13.5146
4.24583	13.9228
4.22506	14.0993
4.2045	14.1899
4.18414	14.2168
4.16398	14.2417
4.14401	14.2548
4.12423	14.2661
4.10464	14.2915
4.08523	14.3105
4.066	14.3086
4.04696	14.2797
4.02809	14.1867
4.0094	14.2588
3.99088	14.3337
3.97253	14.3303
3.95435	14.3457
3.93634	14.3371
3.91848	14.3327
3.90079	14.2971
3.88326	14.2251
3.86589	14.1501
3.84867	14.1345
3.8316	14.146
3.81468	14.1706
3.79791	14.188
3.78129	14.2248
3.76482	14.2536
3.74848	14.2595
3.73229	14.2651
3.71624	14.1245
3.70032	14.2375
3.68454	14.2373
3.6689	14.2082
3.65338	14.1801
3.638	14.1511
3.62275	14.145
3.60762	14.1403
3.59262	14.1298
3.57775	14.1069
3.56299	14.0957
3.54836	14.0754
3.53385	14.0354
3.51945	13.9382
3.50517	13.6125
3.49101	13.7502
3.47696	13.8342
3.46303	13.8366
3.4492	13.7336
3.43549	13.5754
3.42188	13.2556
3.40838	13.3305
3.39499	13.581
3.38171	13.6245
3.36852	13.6933
3.35544	13.8147
3.34246	13.8591
3.32958	13.8618
3.3168	13.8449
3.30411	13.8249
3.29153	13.7971
3.27903	13.8054
3.26664	13.7651
3.25433	13.7229
3.24212	13.6955
3.23	13.6628
3.21797	13.6555
3.20603	13.6247
3.19418	13.593
3.18241	13.5517
3.17074	13.5041
3.15914	13.4677
3.14763	13.4555
3.13621	13.4221
3.12487	13.4072
3.11361	13.3542
3.10243	13.3037
3.09133	13.2065
3.0803	13.1589
3.06936	13.0944
3.0585	12.999
3.04771	12.8808
3.037	12.7153
3.02636	12.6176
3.0158	12.4316
3.00531	12.187
2.99489	12.0901
2.98454	11.8838
2.97427	11.8603
2.96407	11.8579
2.95393	12.0632
2.94387	12.239
2.93387	12.3281
2.92394	12.3357
2.91408	12.2351
2.90429	12.113
2.89456	11.978
2.88489	12.0366
2.87529	11.9074
2.86576	12.0361
2.85628	12.3799
2.84687	12.5683
2.83752	12.646
2.82823	12.5009
2.81901	12.4731
2.80984	12.4135
2.80073	12.1965
2.79168	11.8867
2.78269	11.5258
2.77376	10.957
2.76488	9.6684
2.75606	6.4033
2.7473	2.2236
2.73859	1.0044
2.72994	6.4658
2.72134	10.1128
2.7128	11.7426
2.70431	12.5473
2.69587	13.0407
2.68748	13.3642
2.67915	13.5625
2.67087	13.6552
2.66264	13.7695
2.65446	13.8003
2.64633	13.7519
2.63825	13.7036
2.63021	13.4516
2.62223	13.0815
2.6143	13.0871
2.60641	12.9785
2.59857	12.9443
2.59078	13.1923
2.58304	13.3227
2.57534	13.0708
2.56768	12.6992
2.56008	12.2793
2.55251	11.6772
2.54499	11.5298
2.53752	11.6235
2.53009	11.5927
2.5227	11.8779
2.51536	12.1987
2.50806	12.6523
2.5008	12.7182
2.49358	13.1499
2.4864	13.3962
2.47927	13.6447
2.47218	13.6213
2.46512	13.7382
2.45811	13.9651
2.45114	14.1882
2.4442	14.3147
2.43731	14.3508
2.43045	14.3256
2.42363	14.2983
2.41685	14.3652
2.41011	14.5195
2.40341	14.6074
2.39674	14.6211
2.39011	14.6518
2.38352	14.7248
2.37696	14.719
2.37044	14.7524
2.36395	14.7827
2.35751	14.8479
2.35109	14.8967
2.34471	14.8313
2.33836	14.8623
2.33205	14.8593
2.32578	14.8984
2.31953	15.0039
2.31332	15.0422
2.30714	15.0813
2.301	15.1367
2.29489	15.2451
2.28881	15.3283
2.28276	15.3674
2.27675	15.3711
2.27076	15.2824
2.26481	15.1535
2.25889	15.1486
2.253	15.3994
2.24714	15.4174
2.24131	15.4301
2.23551	15.4511
2.22974	15.3911
2.224	15.3623
2.21829	15.2942
2.21261	15.2072
2.20696	15.1926
2.20134	15.25
2.19574	15.2773
2.19018	15.3
2.18464	15.2939
2.17913	15.208
2.17365	15.1904
2.16819	15.1936
2.16277	15.1464
2.15737	14.998
2.15199	14.8588
2.14665	14.9668
2.14133	15.0405
2.13603	15.184
2.13077	15.3476
2.12552	15.4487
2.12031	15.4355
2.11512	15.3872
2.10995	15.3559
2.10481	15.2163
2.0997	15.0708
2.09461	14.5986
2.08954	13.2666
2.0845	10.6318
2.07948	11.3515
