Name: Basalt
Type: Rocks
Class: Igneous
Subclass: Mafic
Particle Size: Solid
Sample No.: Basalt.H5
Owner: JHU
Origin: from Kilauea Iki Drill core, via Rosalind Helz, USGS, Reston, VA
Description: A gray, medium-grained, slightly vesicular rock with
Measurement: Directional (10 degree) hemispherical reflectance
X Units: Wavelength (micrometers)
Y Units: Reflectance (percent)
wavelength	value
14.0112	4.4943
13.7147	3.5006
13.4304	4.8371
13.1577	3.75
12.8959	4.9135
12.6443	4.8021
12.4023	5.0494
12.1694	6.1903
11.945	7.1529
11.7289	8.3772
11.5203	9.9883
11.3191	11.3062
11.1248	12.3517
10.937	13.038
10.7555	13.7791
10.5799	14.107
10.4099	14.468
10.2454	14.6156
10.0859	15.488
9.9313	16.4709
9.7814	16.0643
9.636	15.1322
9.4948	14.3625
9.3577	14.6285
9.2245	15.6738
9.095	16.4582
8.9691	15.903
8.8467	13.7488
8.7275	12.0288
8.6116	11.1789
8.4986	10.4081
8.3886	8.482
8.2814	6.5569
8.1769	4.1296
8.075	2.6772
7.9756	2.0763
7.8786	1.7826
7.784	1.7163
7.6916	1.6917
7.6014	1.767
7.5133	1.8745
7.4272	1.9483
7.343	2.1012
7.2607	2.2257
7.1803	2.3393
7.1016	2.4445
7.0246	2.573
6.9493	2.6675
6.8755	2.768
6.8034	2.8303
6.7327	2.9407
6.6634	2.9742
6.5956	3.0413
6.5292	3.0806
6.464	3.1475
6.4002	3.2049
6.3376	3.1922
6.2762	3.2356
6.216	3.2843
6.157	3.3358
6.099	3.4094
6.0421	3.4889
5.9863	3.5585
5.9315	3.6867
5.8777	3.7717
5.8249	3.8367
5.773	3.9108
5.722	3.9857
5.6719	4.047
5.6227	4.1402
5.5744	4.2251
5.5268	4.2893
5.4801	4.3385
5.4341	4.4072
5.3889	4.3673
5.3445	4.3457
5.3008	4.4179
5.2578	4.5564
5.2154	4.7125
5.1738	4.8733
5.1328	4.9629
5.0925	5.0676
5.0528	5.0995
5.0137	5.1942
4.9752	5.2985
4.9373	5.5584
4.9	5.7818
4.8632	5.9941
4.827	6.1613
4.7913	6.2981
4.7561	6.4868
4.7215	6.6982
4.6873	6.8906
4.6536	7.0748
4.6205	7.3216
4.5877	7.6003
4.5555	7.8468
4.5237	8.1023
4.4923	8.3114
4.4614	8.5153
4.4309	8.6503
4.4008	8.8155
4.3711	9.0252
4.3418	9.2074
4.3129	9.3802
4.2844	9.5716
4.2563	9.7026
4.2285	9.8423
4.2011	9.9719
4.174	10.0737
4.1473	10.1602
4.1209	10.2206
4.0949	10.3052
4.0692	10.3943
4.0438	10.4397
4.0187	10.5037
3.994	10.5677
3.9695	10.6073
3.9453	10.6472
3.9214	10.6886
3.8979	10.7501
3.8746	10.7971
3.8515	10.8804
3.8288	10.9176
3.8063	10.9906
3.7841	11.0381
3.7621	11.0742
3.7404	11.0857
3.7189	11.1623
3.6977	11.2054
3.6767	11.2548
3.656	11.2568
3.6355	11.3238
3.6152	11.343
3.5951	11.4039
3.5753	11.4348
3.5557	11.4351
3.5363	11.482
3.5171	11.4893
3.4981	11.5005
3.4793	11.5075
3.4607	11.5659
3.4423	11.5847
3.4241	11.5729
3.4061	11.6132
3.3883	11.6662
3.3707	11.7187
3.3533	11.7522
3.336	11.7914
3.3189	11.8277
3.302	11.8333
3.2853	11.8842
3.2687	11.8647
3.2523	11.8542
3.2361	11.8908
3.22	11.8746
3.204	11.8964
3.1883	11.8856
3.1727	11.8922
3.1572	11.8706
3.1419	11.9125
3.1268	11.8976
3.1117	11.8779
3.0969	11.8743
3.0821	11.8692
3.0675	11.9055
3.0531	11.8859
3.0388	11.8706
3.0246	11.921
3.0105	11.8694
2.9966	11.9029
2.9828	11.887
2.9692	11.9187
2.9556	11.8729
2.9422	11.9459
2.9289	11.962
2.9157	11.9245
2.9027	11.9538
2.8897	11.9095
2.8769	11.8722
2.8642	11.9426
2.8516	11.9065
2.8391	11.9892
2.8267	11.8566
2.8144	12.0286
2.8022	11.9252
2.7902	11.9243
2.7782	11.9899
2.7664	11.9725
2.7546	11.996
2.7429	12.0586
2.7314	12.0316
2.7199	12.0628
2.7085	12.1947
2.6973	12.1938
2.6861	12.2065
2.675	12.1188
2.664	12.2041
2.6531	12.1355
2.6423	12.0452
2.6315	12.1067
2.6209	12.0372
2.6103	11.9514
2.5999	11.8633
2.5895	11.8457
2.5792	11.7872
2.569	11.7677
2.5588	11.6628
2.5487	11.6589
2.5388	11.6501
2.5289	11.562
2.519	11.5045
2.5093	11.5303
2.4996	11.4255
2.49	11.4199
2.4805	11.3815
2.471	11.3841
2.4616	11.3454
2.4523	11.4056
2.4431	11.32
2.4339	11.226
2.4248	11.2821
2.4157	11.1862
2.4068	11.2385
2.3979	11.2083
2.389	11.1584
2.3802	11.2376
2.3715	11.1719
2.3629	11.1567
2.3543	11.1813
2.3458	11.1358
2.3373	11.0587
2.3289	11.1345
2.3206	11.1065
2.3123	11.1119
2.3041	11.0442
2.2959	11.1206
2.2878	11.0604
2.2798	11.2127
2.2718	11.1314
2.2638	11.1374
2.2559	11.1103
2.2481	11.1039
2.2403	11.2028
2.2326	11.1403
2.225	11.1898
2.2173	11.2143
2.2098	11.1584
2.2023	11.2462
2.1948	11.2572
2.1874	11.2649
2.18	11.2024
2.1727	11.3875
2.1655	11.3381
2.1583	11.249
2.1511	11.3748
2.144	11.4072
2.1369	11.3787
2.1299	11.4595
2.1229	11.38
2.116	11.3831
2.1091	11.5324
2.1023	11.4424
2.0955	11.4756
2.0887	11.5031
2.082	11.5579
2.06	11.6736
2.028	11.8244
1.996	12.1054
1.964	12.328
1.932	12.4322
1.9	12.7572
1.868	12.9619
1.836	13.2147
1.804	13.4946
1.772	13.6861
1.74	13.9312
1.708	14.2039
1.676	14.3534
1.644	14.4203
1.612	14.7853
1.58	14.7975
1.548	14.6794
1.516	14.5617
1.484	14.2951
1.452	14.2951
1.42	13.8869
1.388	13.7211
1.356	13.4105
1.324	13.2739
1.292	12.9081
1.26	12.8498
1.228	12.8326
1.196	12.6787
1.164	12.5327
1.132	12.329
1.1	11.9621
1.068	11.8455
1.036	11.7341
1.004	11.7597
0.972	11.9864
0.94	12.493
0.908	13.1225
0.876	13.9292
0.844	14.5927
0.812	15.4483
0.795	15.4721
0.787	15.4838
0.779	15.5735
0.771	15.53
0.763	15.5682
0.755	15.5932
0.747	15.7422
0.739	15.5962
0.731	15.6401
0.723	15.7009
0.715	15.63
0.707	15.6982
0.699	15.6752
0.691	15.758
0.683	15.9087
0.675	15.7699
0.667	15.8015
0.659	15.6248
0.651	15.7193
0.643	15.5745
0.635	15.5685
0.627	15.8139
0.619	15.4289
0.611	15.6752
0.603	15.4847
0.595	15.6427
0.587	15.5392
0.579	15.5077
0.571	15.3145
0.563	15.4851
0.555	15.2752
0.547	15.2365
0.539	15.2977
0.531	15.1737
0.523	15.2799
0.515	15.1442
0.507	15.1741
0.499	15.062
0.491	15.1251
0.483	14.9828
0.475	14.907
0.467	14.8332
0.459	14.4645
0.451	14.5495
0.443	14.4436
0.435	14.4971
0.427	14.4909
0.419	14.1292
0.411	13.9692
0.403	13.8088
