Name: Basalt
Type: Rocks
Class: Igneous
Subclass: Mafic
Particle Size: Solid
Sample No.: Basalt.H2
Owner: JHU
Origin: from Juan de Fuca Ridge, via Smithsonian (Cat. No. NMNH
Description: The sample has a glassey rind over a more crystalline interior.
Measurement: Directional (10 degree) hemispherical reflectance
X Units: Wavelength (micrometers)
Y Units: Reflectance (percent)
wavelength	value
14.0112	1.9109
13.7147	2.0058
13.4304	1.2258
13.1577	1.8961
12.8959	1.7028
12.6443	1.8244
12.4023	2.174
12.1694	2.5005
11.945	2.538
11.7289	2.7138
11.5203	2.8896
11.3191	3.1135
11.1248	3.2076
10.937	3.2717
10.7555	3.4268
10.5799	3.525
10.4099	3.8608
10.2454	4.7423
10.0859	6.1259
9.9313	7.7388
9.7814	9.3194
9.636	11.0606
9.4948	9.4111
9.3577	7.8841
9.2245	5.9268
9.095	4.6865
8.9691	4.0132
8.8467	3.5745
8.7275	3.3621
8.6116	3.1694
8.4986	3.0633
8.3886	2.8772
8.2814	2.6194
8.1769	2.3241
8.075	2.2029
7.9756	2.22
7.8786	2.333
7.784	2.4166
7.6916	2.5026
7.6014	2.5114
7.5133	2.5613
7.4272	2.6943
7.343	2.7267
7.2607	2.7977
7.1803	2.8404
7.1016	2.8997
7.0246	2.9585
6.9493	3.0522
6.8755	3.0876
6.8034	3.1493
6.7327	3.3825
6.6634	3.3618
6.5956	3.2768
6.5292	3.1057
6.464	3.0421
6.4002	2.9714
6.3376	2.9226
6.2762	2.8535
6.216	2.7855
6.157	2.6608
6.099	2.7054
6.0421	2.7963
5.9863	2.8793
5.9315	3.1411
5.8777	3.4774
5.8249	3.7842
5.773	4.0969
5.722	4.3699
5.6719	4.5304
5.6227	4.6854
5.5744	4.8379
5.5268	4.972
5.4801	5.0834
5.4341	5.1421
5.3889	5.2256
5.3445	5.2478
5.3008	5.2969
5.2578	5.4096
5.2154	5.4776
5.1738	5.5774
5.1328	5.6883
5.0925	5.8073
5.0528	5.9475
5.0137	6.0994
4.9752	6.2039
4.9373	6.3316
4.9	6.4455
4.8632	6.5688
4.827	6.6839
4.7913	6.7668
4.7561	6.8548
4.7215	6.9103
4.6873	7.021
4.6536	7.1472
4.6205	7.2225
4.5877	7.302
4.5555	7.35
4.5237	7.3837
4.4923	7.4353
4.4614	7.4602
4.4309	7.4937
4.4008	7.5412
4.3711	7.5553
4.3418	7.5823
4.3129	7.5722
4.2844	7.552
4.2563	7.5942
4.2285	7.6137
4.2011	7.6717
4.174	7.6612
4.1473	7.6449
4.1209	7.665
4.0949	7.6451
4.0692	7.6373
4.0438	7.6184
4.0187	7.6226
3.994	7.6216
3.9695	7.5595
3.9453	7.4913
3.9214	7.4792
3.8979	7.4532
3.8746	7.4233
3.8515	7.3643
3.8288	7.326
3.8063	7.2675
3.7841	7.2223
3.7621	7.1841
3.7404	7.1296
3.7189	7.0713
3.6977	7.0364
3.6767	6.967
3.656	6.8967
3.6355	6.8646
3.6152	6.7964
3.5951	6.7361
3.5753	6.6579
3.5557	6.6039
3.5363	6.4748
3.5171	6.1524
3.4981	5.7553
3.4793	5.8429
3.4607	5.8643
3.4423	5.6611
3.4241	5.2399
3.4061	5.2197
3.3883	5.3716
3.3707	5.3854
3.3533	5.6686
3.336	5.7555
3.3189	5.7506
3.302	5.6901
3.2853	5.6688
3.2687	5.5889
3.2523	5.5345
3.2361	5.4724
3.22	5.3514
3.204	5.3182
3.1883	5.2092
3.1727	5.1567
3.1572	5.0824
3.1419	4.9717
3.1268	4.886
3.1117	4.8138
3.0969	4.7634
3.0821	4.6964
3.0675	4.6475
3.0531	4.5759
3.0388	4.4841
3.0246	4.4431
3.0105	4.3662
2.9966	4.321
2.9828	4.2049
2.9692	4.2462
2.9556	4.1203
2.9422	4.0746
2.9289	4.0671
2.9157	4.0645
2.9027	4.08
2.8897	4.1275
2.8769	4.0779
2.8642	4.0699
2.8516	4.1433
2.8391	4.1576
2.8267	4.1449
2.8144	4.1728
2.8022	4.2204
2.7902	4.2902
2.7782	4.3877
2.7664	4.4922
2.7546	4.6732
2.7429	4.9629
2.7314	5.2226
2.7199	5.1532
2.7085	6.3438
2.6973	7.0005
2.6861	7.4386
2.675	7.6919
2.664	7.8291
2.6531	7.8152
2.6423	7.8473
2.6315	7.8738
2.6209	7.9127
2.6103	7.8492
2.5999	7.8537
2.5895	7.8576
2.5792	7.8994
2.569	7.8506
2.5588	7.8475
2.5487	7.8548
2.5388	7.8225
2.5289	7.8274
2.519	7.8586
2.5093	7.8377
2.4996	7.7904
2.49	7.9327
2.4805	7.7796
2.471	7.8187
2.4616	7.8091
2.4523	7.8494
2.4431	7.8712
2.4339	7.9151
2.4248	7.7847
2.4157	7.8839
2.4068	7.8132
2.3979	7.7628
2.389	7.8815
2.3802	7.8537
2.3715	7.7964
2.3629	7.9033
2.3543	7.8834
2.3458	7.8727
2.3373	7.8513
2.3289	7.8977
2.3206	7.9481
2.3123	7.921
2.3041	7.8691
2.2959	7.9408
2.2878	7.9516
2.2798	7.9856
2.2718	8.0468
2.2638	8.0288
2.2559	8.02
2.2481	8.0644
2.2403	8.1567
2.2326	8.1349
2.225	8.1799
2.2173	8.1159
2.2098	8.14
2.2023	8.2859
2.1948	8.2263
2.1874	8.2812
2.18	8.2364
2.1727	8.3224
2.1655	8.3264
2.1583	8.3137
2.1511	8.3955
2.144	8.3646
2.1369	8.3955
2.1299	8.348
2.1229	8.4031
2.116	8.4252
2.1091	8.4539
2.1023	8.4522
2.0955	8.4602
2.0887	8.4328
2.082	8.4639
2.06	8.4393
2.028	8.5455
1.996	8.501
1.964	8.3207
1.932	8.3518
1.9	8.3855
1.868	8.3589
1.836	8.4489
1.804	8.5837
1.772	8.4789
1.74	8.3055
1.708	8.3079
1.676	8.4281
1.644	8.3846
1.612	8.3055
1.58	8.1673
1.548	8.2353
1.516	8.2829
1.484	8.1807
1.452	8.1784
1.42	8.172
1.388	8.1076
1.356	8.1354
1.324	8.0889
1.292	8.1096
1.26	7.9232
1.228	8.0997
1.196	7.955
1.164	8.127
1.132	8.2612
1.1	8.1177
1.068	8.1749
1.036	8.0685
1.004	8.3014
0.972	8.2381
0.94	8.2573
0.908	8.057
0.876	8.0369
0.844	8.1009
0.812	8.2782
0.795	7.8813
0.787	8.2391
0.779	7.8632
0.771	7.8745
0.763	7.8677
0.755	8.1172
0.747	7.7633
0.739	8.0753
0.731	8.055
0.723	8.3171
0.715	8.0601
0.707	7.8301
0.699	8.0181
0.691	8.1917
0.683	8.1119
0.675	7.7571
0.667	8.0305
0.659	7.9515
0.651	8.1146
0.643	8.156
0.635	7.8454
0.627	7.7621
0.619	7.7253
0.611	8.0152
0.603	7.6962
0.595	7.8064
0.587	7.707
0.579	7.8245
0.571	8.0789
0.563	8.087
0.555	8.08
0.547	8.0683
0.539	7.7783
0.531	7.9078
0.523	8.0952
0.515	7.9342
0.507	7.9712
0.499	7.9763
0.491	7.987
0.483	7.9151
0.475	8.1455
0.467	7.9619
0.459	7.374
0.451	7.8802
0.443	7.8455
0.435	7.413
0.427	7.3659
0.419	7.0004
0.411	7.1745
0.403	7.0148
