Name: Tourmaline (Schorl) NaFe3+2Al6(BO3)3Si6O18(OH)4
Type: Mineral
Class: Silicates
Subclass: Cycloilicates (Ring Silicates)
Particle Size: Fine  (Less than 2  Micrometers)
Sample No.: tourmal.2
Owner: JHU
Wavelength Range: IR
Origin: Minas Gerais, Brazil via the Hunt and Salisbury Collection
Description: The sample was a translucent, blue, single crystal.  It
Measurement: Transmission
X Units: Wavelength (micrometers)
Y Units: Transmittance (percent)
wavelength	value
25.0442	33.6718
24.3388	25.5195
23.6719	18.0312
23.0407	19.9082
22.4422	18.8789
21.8741	21.5488
21.334	19.082
20.8199	13.3515
20.33	9.0488
19.8627	7.166
19.4163	6.4424
18.9896	8.1611
18.5812	11.1875
18.19	12.7666
17.815	14.4843
17.4551	17.9335
17.1094	17.1386
16.7772	19.9687
16.4576	22.0517
16.15	26.0439
15.8537	30.8486
15.568	29.872
15.2925	29.4257
15.0265	32.5819
14.7697	36.1054
14.5214	38.705
14.2814	30.5478
14.0492	30.2079
13.8244	37.5121
13.6067	43.9686
13.3957	40.5141
13.1912	42.4667
12.9929	46.9218
12.8004	38.4789
12.6135	47.6078
12.432	57.8495
12.2557	58.536
12.0843	61.7913
11.9176	63.3182
11.7555	59.9222
11.5977	62.6327
11.444	64.4451
11.2944	58.0003
11.1487	50.8339
11.0067	43.9891
10.8682	34.912
10.7332	26.2783
10.6015	18.1621
10.473	11.8447
10.3476	8.0703
10.2251	6.2978
10.1056	6.5122
9.98873	7.7051
9.87458	8.0693
9.763	7.8618
9.65392	8.5332
9.54724	9.6855
9.44291	11.125
9.34082	13.0786
9.24091	19.4326
9.14312	22.8193
9.04739	20.1152
8.95363	20.9711
8.8618	28.8114
8.77183	41.0009
8.68368	51.2093
8.59727	58.2728
8.51257	63.4051
8.42951	66.8128
8.34807	67.6964
8.26819	66.161
8.18981	59.8575
8.11292	46.1639
8.03745	33.3888
7.96337	23.4296
7.89064	17.1711
7.81924	16.8378
7.74911	19.5783
7.68023	21.4836
7.61256	21.4008
7.54608	19.6723
7.48074	20.2961
7.41653	22.749
7.35341	26.0234
7.29136	30.1586
7.23034	34.1659
7.17033	39.5062
7.11132	43.6532
7.05327	47.6503
6.99616	51.9591
6.93996	56.7694
6.88467	61.494
6.83024	65.3407
6.77667	68.3743
6.72393	70.918
6.67201	73.1111
6.62089	75.0674
6.57054	76.835
6.52095	78.4043
6.4721	79.7139
6.42398	80.9678
6.37657	81.9505
6.32986	82.7918
6.28382	83.416
6.23845	83.4392
6.19373	83.3064
6.14965	83.7146
6.10619	85.1707
6.06334	85.76
6.02109	84.9451
5.97942	85.0672
5.93832	87.7849
5.89778	89.1785
5.8578	90.1091
5.81835	90.8181
5.77943	91.4231
5.74103	92.1406
5.70314	92.7683
5.66574	93.2764
5.62883	93.6619
5.5924	93.8523
5.55644	94.1475
5.52093	94.322
5.48588	94.6257
5.45127	95.0359
5.41709	95.3916
5.38334	95.6086
5.35	95.9268
5.31708	96.2327
5.28456	96.4687
5.25243	96.6335
5.2207	96.7371
5.18934	96.9587
5.15836	97.1562
5.12775	97.2256
5.09749	97.281
5.0676	97.3513
5.03805	97.4919
5.00884	97.5886
4.97998	97.7917
4.95144	98.0168
4.92322	98.1731
4.89533	98.366
4.86775	98.5359
4.84048	98.7356
4.81351	98.9353
4.78684	99.0828
4.76047	99.1931
4.73439	99.3215
4.70859	99.3601
4.68306	99.4875
4.65782	99.4993
4.63284	99.5964
4.60814	99.5671
4.58369	99.5676
4.5595	99.4827
4.53557	99.3621
4.51188	99.2019
4.48845	99.1091
4.46525	98.9831
4.44229	98.8601
4.41957	98.8088
4.39708	98.7234
4.37481	98.762
4.35277	98.7165
4.33096	98.7092
4.30935	98.7019
4.28797	98.8015
4.26679	98.842
4.24583	98.8806
4.22506	98.9763
4.2045	98.9807
4.18414	99.0398
4.16398	99.137
4.14401	99.2068
4.12423	99.2073
4.10464	99.2947
4.08523	99.2639
4.066	99.3064
4.04696	99.3318
4.02809	99.3113
4.0094	99.2117
3.99088	99.1404
3.97253	99.0686
3.95435	98.9626
3.93634	98.8479
3.91848	98.7654
3.90079	98.5764
3.88326	98.3474
3.86589	98.1604
3.84867	98.0046
3.8316	97.8679
3.81468	97.7507
3.79791	97.7698
3.78129	97.7996
3.76482	97.8259
3.74848	97.7996
3.73229	97.7781
3.71624	97.7873
3.70032	97.7224
3.68454	97.7522
3.6689	97.697
3.65338	97.7263
3.638	97.6609
3.62275	97.6682
3.60762	97.5881
3.59262	97.5662
3.57775	97.4646
3.56299	97.363
3.54836	97.3044
3.53385	97.2288
3.51945	97.0471
3.50517	96.8415
3.49101	96.842
3.47696	96.5374
3.46303	96.406
3.4492	96.26
3.43549	96.0818
3.42188	95.8591
3.40838	95.7292
3.39499	95.6707
3.38171	95.2815
3.36852	95.197
3.35544	95.3635
3.34246	95.2908
3.32958	95.1311
3.3168	94.9626
3.30411	94.8225
3.29153	94.6736
3.27903	94.5452
3.26664	94.3787
3.25433	94.0945
3.24212	93.8816
3.23	93.614
3.21797	93.4119
3.20603	93.2029
3.19418	92.9988
3.18241	92.7166
3.17074	92.4646
3.15914	92.2517
3.14763	91.7351
3.13621	91.4685
3.12487	91.0242
3.11361	90.8259
3.10243	90.7927
3.09133	90.6638
3.0803	90.3953
3.06936	90.0291
3.0585	89.822
3.04771	89.7849
3.037	89.2654
3.02636	88.6257
3.0158	87.9812
3.00531	87.4031
2.99489	86.8689
2.98454	86.4939
2.97427	86.1834
2.96407	85.7469
2.95393	85.3943
2.94387	84.9383
2.93387	84.4138
2.92394	83.5779
2.91408	82.2195
2.90429	80.2459
2.89456	76.8289
2.88489	72.5858
2.87529	69.4158
2.86576	69.6678
2.85628	72.1258
2.84687	73.242
2.83752	72.8133
2.82823	69.5516
2.81901	64.4334
2.80984	65.7742
2.80073	71.8045
2.79168	82.0008
2.78269	91.3953
2.77376	94.3123
2.76488	94.5271
2.75606	88.3455
2.7473	89.8865
2.73859	93.5369
2.72994	95.657
2.72134	95.5583
2.7128	95.407
2.70431	95.1794
2.69587	95.4343
2.68748	95.1834
2.67915	95.1091
2.67087	95.2771
2.66264	95.1834
2.65446	94.949
2.64633	94.8445
2.63825	94.7283
2.63021	94.6462
2.62223	94.5896
2.6143	94.5154
2.60641	94.4763
2.59857	94.2732
2.59078	94.4138
2.58304	94.1462
2.57534	93.9138
2.56768	93.8455
2.56008	93.7986
2.55251	93.738
2.54499	93.6462
2.53752	93.7537
2.53009	93.4099
2.5227	93.5056
2.51536	93.3748
2.50806	93.1892
2.5008	93.1169
2.49358	93.0896
2.4864	93.1287
2.47927	93.2127
2.47218	93.0779
2.46512	93.0388
2.45811	92.7927
2.45114	92.9392
2.4442	92.8162
2.43731	92.8513
2.43045	92.7986
2.42363	92.5408
2.41685	92.4373
2.41011	92.6736
2.40341	92.3201
2.39674	92.3513
2.39011	92.1736
2.38352	92.2127
2.37696	92.1052
2.37044	92.156
2.36395	91.9373
2.35751	92.0252
2.35109	91.8943
2.34471	91.7673
2.33836	92.1326
2.33205	91.8045
2.32578	91.6267
2.31953	91.656
2.31332	91.9685
2.30714	91.3045
2.301	91.4685
2.29489	91.2966
2.28881	91.4158
2.28276	91.406
2.27675	91.4627
2.27076	90.9334
2.26481	91.0935
2.25889	90.9568
2.253	90.6873
2.24714	90.8865
2.24131	90.5349
2.23551	90.8826
2.22974	90.6287
2.224	90.5154
2.21829	90.3513
2.21261	90.2224
2.20696	90.3435
2.20134	90.4607
2.19574	90.3787
2.19018	90.1677
2.18464	90.1638
2.17913	89.8904
2.17365	89.9451
2.16819	89.8787
2.16277	89.6834
2.15737	89.8006
2.15199	89.7654
2.14665	89.1248
2.14133	89.5779
2.13603	89.3513
2.13077	89.1404
2.12552	88.4841
2.12031	89.2107
2.11512	89.0466
2.10995	88.8123
2.10481	88.4216
2.0997	88.5466
2.09461	88.4607
2.08954	88.7381
2.0845	88.6951
2.07948	87.4529
