Name: Hemimorphite Zn4Si2O7(OH)2.H2O
Type: Mineral
Class: Silicates
Subclass: Sorosilicates (Two isolated tetrahedra)
Particle Size: Fine  (Less than 2  Micrometers)
Sample No.: hemimor.1
Owner: JHU
Wavelength Range: IR
Origin: Mapimi, Durango, Mexico via the Smithsonian (sample
Description: The sample consisted of two white, translucent
Measurement: Transmission
X Units: Wavelength (micrometers)
Y Units: Transmittance (percent)
wavelength	value
25.044	85.4842
24.339	87.6912
23.672	85.0662
23.041	80.158
22.442	61.0233
21.874	78.1326
21.334	91.1795
20.82	91.533
20.33	89.7283
19.863	86.9373
19.416	81.3865
18.99	71.0272
18.581	60.2586
18.19	59.8485
17.815	49.3788
17.455	60.7088
17.109	64.8709
16.777	54.9061
16.458	51.451
16.15	74.0682
15.854	86.6287
15.568	90.2029
15.292	89.8787
15.027	86.5154
14.77	73.2772
14.521	84.5242
14.281	89.8211
14.049	91.739
13.824	92.4998
13.607	93.0042
13.396	93.0486
13.191	93.199
12.993	93.6248
12.8	93.0623
12.614	92.9885
12.432	91.7556
12.256	89.9944
12.084	87.9256
11.918	83.3865
11.755	72.3924
11.598	45.8036
11.444	64.3612
11.294	74.1639
11.149	69.7581
11.007	58.5204
10.868	38.8173
10.733	18.1464
10.602	20.7734
10.473	28.9125
10.348	39.7738
10.225	54.0687
10.106	62.7244
9.989	68.9119
9.875	72.0018
9.763	73.3621
9.654	74.9964
9.547	78.4026
9.443	80.2752
9.341	75.1414
9.241	50.7992
9.143	55.2245
9.047	74.3191
8.954	83.1761
8.862	86.8816
8.772	88.5349
8.684	89.9339
8.597	90.9255
8.513	92.4856
8.43	93.823
8.348	94.8291
8.268	95.5769
8.19	96.2166
8.113	96.6785
8.037	97.1006
7.963	97.3682
7.891	97.6267
7.819	97.915
7.749	98.1572
7.68	98.3591
7.613	98.5459
7.546	98.6892
7.481	99.0137
7.417	99.2041
7.353	99.3122
7.291	99.3281
7.23	99.4939
7.17	99.5246
7.111	99.7578
7.053	99.9394
6.996	99.7607
6.94	99.6848
6.885	99.8447
6.83	99.9392
6.777	100.11
6.724	100.102
6.672	100.146
6.621	100.08
6.571	100.163
6.521	99.9695
6.472	99.6282
6.424	99.6728
6.377	99.612
6.33	99.4167
6.284	99.2441
6.238	98.6514
6.194	97.5681
6.15	93.9988
6.106	87.6023
6.063	96.9021
6.021	98.6511
5.979	99.0361
5.938	99.947
5.898	100.369
5.858	100.443
5.818	100.484
5.779	100.415
5.741	100.429
5.703	100.424
5.666	100.319
5.629	100.337
5.592	100.257
5.556	100.387
5.521	100.442
5.486	100.493
5.451	100.496
5.417	100.51
5.383	100.342
5.35	100.354
5.317	100.391
5.285	100.436
5.252	100.42
5.221	100.426
5.189	100.468
5.158	100.555
5.128	100.648
5.097	100.644
5.068	100.628
5.038	100.679
5.009	100.662
4.98	100.643
4.951	100.635
4.923	100.633
4.895	100.706
4.868	100.729
4.84	100.761
4.814	100.761
4.787	100.794
4.76	100.904
4.734	100.974
4.709	100.957
4.683	101.016
4.658	101.063
4.633	101.131
4.608	101.131
4.584	101.268
4.56	101.232
4.536	101.207
4.512	101.205
4.488	101.2
4.465	101.212
4.442	101.197
4.42	101.229
4.397	101.3
4.375	101.262
4.353	101.267
4.331	101.319
4.309	101.293
4.288	101.284
4.267	101.255
4.246	101.335
4.225	101.374
4.205	101.276
4.184	101.307
4.164	101.313
4.144	101.351
4.124	101.398
4.105	101.378
4.085	101.344
4.066	101.334
4.047	101.321
4.028	101.35
4.009	101.39
3.991	101.244
3.973	101.287
3.954	101.354
3.936	101.304
3.918	101.354
3.901	101.291
3.883	101.271
3.866	101.189
3.849	101.225
3.832	101.195
3.815	101.125
3.798	101.082
3.781	101.095
3.765	101.012
3.748	100.965
3.732	100.916
3.716	100.817
3.7	100.756
3.685	100.768
3.669	100.61
3.653	100.67
3.638	100.606
3.623	100.5
3.608	100.483
3.593	100.421
3.578	100.369
3.563	100.302
3.548	100.185
3.534	100.197
3.519	100.22
3.505	100.175
3.491	100.222
3.477	100.032
3.463	99.863
3.449	99.9475
3.435	100.015
3.422	100.066
3.408	99.9612
3.395	99.7703
3.382	99.637
3.369	99.4665
3.355	99.2405
3.342	99.1526
3.33	99.0823
3.317	98.9983
3.304	98.8909
3.292	98.7268
3.279	98.7463
3.267	98.4997
3.254	98.3328
3.242	98.2107
3.23	97.9763
3.218	97.8621
3.206	97.5828
3.194	97.321
3.182	97.0964
3.171	96.8669
3.159	96.5007
3.148	95.988
3.136	95.7996
3.125	95.2166
3.114	94.7732
3.102	94.0837
3.091	93.4773
3.08	93.4851
3.069	93.3337
3.058	92.9861
3.048	92.6062
3.037	91.7673
3.026	91.0945
3.016	90.4539
3.005	89.824
2.995	89.2
2.985	88.4998
2.974	87.8318
2.964	86.6326
2.954	85.7263
2.944	84.9578
2.934	83.7068
2.924	82.8211
2.914	81.9617
2.904	81.6404
2.895	81.7195
2.885	81.8211
2.875	82.3904
2.866	82.907
2.856	83.6961
2.847	84.6101
2.838	85.2556
2.828	85.7429
2.819	86.5515
2.81	87.1179
2.801	87.8181
2.792	88.4304
2.783	89.3025
2.774	90.1131
2.765	91.3123
2.756	93.2849
2.747	95.4968
2.739	97.3054
2.73	98.5115
2.721	99.5466
2.713	100.083
2.704	100.469
2.696	100.947
2.687	101.199
2.679	101.55
2.671	101.778
2.663	101.574
2.654	101.64
2.646	101.574
2.638	101.629
2.63	101.644
2.622	101.838
2.614	101.728
2.606	101.859
2.599	101.713
2.591	101.982
2.583	102.045
2.575	101.76
2.568	101.767
2.56	101.924
2.553	101.947
2.545	101.824
2.538	102.025
2.53	101.916
2.523	101.791
2.515	101.894
2.508	101.953
2.501	101.931
2.494	101.859
2.486	102.062
2.479	102.074
2.472	101.867
2.465	102.172
2.458	102.054
2.451	102.07
2.444	101.804
2.437	102.133
2.43	102.203
2.424	101.804
2.417	101.861
2.41	102.236
2.403	102.033
2.397	102.109
2.39	101.793
2.384	102.105
2.377	102.072
2.37	102.316
2.364	102.205
2.358	101.916
2.351	101.976
2.345	102.14
2.338	102.125
2.332	102.353
2.326	102.025
2.32	102.203
2.313	102.367
2.307	102.22
2.301	102.197
2.295	102.088
2.289	102.455
2.283	102.344
2.277	102.172
2.271	102.39
2.265	102.172
2.259	102.402
2.253	102.722
2.247	101.949
2.241	102.383
2.236	102.562
2.23	102.523
2.224	102.109
2.218	102.492
2.213	102.187
2.207	102.57
2.201	102.515
2.196	102.75
2.19	102.64
2.185	102.547
2.179	102.558
2.174	102.316
2.168	102.754
2.163	102.847
2.157	102.804
2.152	102.965
2.147	102.711
2.141	102.258
2.136	102.937
2.131	102.664
2.126	102.664
2.12	103.164
2.115	103.094
2.11	103.203
2.105	102.332
2.1	102.8
2.095	103.144
2.09	103.203
2.085	102.922
2.079	102.613
