Name: Saponite (Ca/2,Na)0.33(Mg,Fe+2)3(Si,Al)4O10(OH)2.H2O
Type: Mineral
Class: Silicates
Subclass: Phyllosilicates (Sheet silicates); Smectite Group
Particle Size: 0-2 micrometers.  (Packed powder simulates coarse.)
Sample No.: saponite.1
Owner: JHU
Wavelength Range: IR
Origin: Ballarat, California, USA via the Hunt and Salisbury Collection
Description: Sample was a cream-colored, earthy clay. The less than
Measurement: Bidirectional reflectance
X Units: Wavelength (micrometers)
Y Units: Reflectance (percent)
wavelength	value
25.0442	9.8515
24.3388	12.04
23.6719	13.5683
23.0407	15.8518
22.4422	20.2084
21.8741	20.9435
21.334	26.8295
20.8199	28.3749
20.33	27.0575
19.8627	25.895
19.4163	26.3661
18.9896	25.0456
18.5812	19.5095
18.19	17.4414
17.815	12.9914
17.4551	6.6714
17.1094	2.2368
16.7772	1.123
16.4576	1.5205
16.15	2.0498
15.8537	2.6445
15.568	3.448
15.2925	4.7964
15.0265	5.2815
14.7697	3.6931
14.5214	2.759
14.2814	1.7661
14.0492	1.4434
13.8244	1.6934
13.6067	2.0459
13.3957	2.3374
13.1912	2.6162
12.9929	2.8564
12.8004	3.0312
12.6135	3.2234
12.432	3.4746
12.2557	3.782
12.0843	4.1912
11.9176	4.4929
11.7555	4.6677
11.5977	4.8652
11.444	5.1616
11.2944	5.4302
11.1487	5.6138
11.0067	5.832
10.8682	6.1438
10.7332	6.604
10.6015	7.3159
10.473	8.2053
10.3476	9.3896
10.2251	10.9111
10.1056	12.8108
9.98873	15.2524
9.87458	18.2238
9.763	21.2819
9.65392	23.0969
9.54724	22.2663
9.44291	20.1372
9.34082	16.0188
9.24091	13.7268
9.14312	12.7395
9.04739	12.5249
8.95363	12.3069
8.8618	12.1338
8.77183	11.5822
8.68368	9.8991
8.59727	7.1313
8.51257	4.4678
8.42951	2.4722
8.34807	1.2715
8.26819	0.698
8.18981	0.5759
8.11292	0.6279
8.03745	0.7449
7.96337	0.8909
7.89064	1.0371
7.81924	1.2014
7.74911	1.3674
7.68023	1.5295
7.61256	1.675
7.54608	1.8064
7.48074	1.9304
7.41653	2.0613
7.35341	2.1782
7.29136	2.301
7.23034	2.4307
7.17033	2.5552
7.11132	2.6731
7.05327	2.772
6.99616	2.8904
6.93996	3.0373
6.88467	3.1697
6.83024	3.322
6.77667	3.4934
6.72393	3.6706
6.67201	3.8142
6.62089	3.9153
6.57054	4.0007
6.52095	4.0535
6.4721	4.0737
6.42398	4.0398
6.37657	3.9199
6.32986	3.688
6.28382	3.3271
6.23845	2.8809
6.19373	2.5034
6.14965	2.342
6.10619	2.4111
6.06334	2.5842
6.02109	2.8115
5.97942	3.0561
5.93832	3.3184
5.89778	3.5864
5.8578	3.8205
5.81835	3.9809
5.77943	4.0486
5.74103	4.0618
5.70314	4.0674
5.66574	4.0776
5.62883	4.1157
5.5924	4.1858
5.55644	4.2783
5.52093	4.3977
5.48588	4.5144
5.45127	4.6133
5.41709	4.6863
5.38334	4.7331
5.35	4.7671
5.31708	4.8049
5.28456	4.8371
5.25243	4.8774
5.2207	4.9734
5.18934	5.1589
5.15836	5.4563
5.12775	5.7641
5.09749	6.039
5.0676	6.2073
5.03805	6.2834
5.00884	6.323
4.97998	6.3413
4.95144	6.3642
4.92322	6.3943
4.89533	6.4241
4.86775	6.4692
4.84048	6.5215
4.81351	6.5823
4.78684	6.6394
4.76047	6.7117
4.73439	6.79
4.70859	6.8735
4.68306	6.9722
4.65782	7.0674
4.63284	7.1545
4.60814	7.2427
4.58369	7.3222
4.5595	7.3874
4.53557	7.4492
4.51188	7.5061
4.48845	7.5683
4.46525	7.6296
4.44229	7.6858
4.41957	7.7402
4.39708	7.7929
4.37481	7.8423
4.35277	7.8874
4.33096	7.9319
4.30935	7.9841
4.28797	8.0227
4.26679	8.0718
4.24583	8.1286
4.22506	8.1904
4.2045	8.2407
4.18414	8.3
4.16398	8.3506
4.14401	8.3945
4.12423	8.448
4.10464	8.5002
4.08523	8.5537
4.066	8.6013
4.04696	8.6543
4.02809	8.7073
4.0094	8.7368
3.99088	8.772
3.97253	8.7888
3.95435	8.8274
3.93634	8.8452
3.91848	8.8691
3.90079	8.8757
3.88326	8.8716
3.86589	8.8728
3.84867	8.8579
3.8316	8.8491
3.81468	8.8271
3.79791	8.8059
3.78129	8.7785
3.76482	8.7539
3.74848	8.7158
3.73229	8.6799
3.71624	8.6328
3.70032	8.5781
3.68454	8.5232
3.6689	8.4826
3.65338	8.4297
3.638	8.3891
3.62275	8.3235
3.60762	8.26
3.59262	8.1838
3.57775	8.1096
3.56299	8.0293
3.54836	7.9243
3.53385	7.8157
3.51945	7.6797
3.50517	7.541
3.49101	7.4504
3.47696	7.3327
3.46303	7.24
3.4492	7.1186
3.43549	6.9724
3.42188	6.8005
3.40838	6.6806
3.39499	6.5747
3.38171	6.4297
3.36852	6.31
3.35544	6.1785
3.34246	6.0449
3.32958	5.9336
3.3168	5.7998
3.30411	5.664
3.29153	5.5393
3.27903	5.4348
3.26664	5.3454
3.25433	5.2219
3.24212	5.0979
3.23	4.9729
3.21797	4.8359
3.20603	4.7048
3.19418	4.5735
3.18241	4.4343
3.17074	4.3071
3.15914	4.1938
3.14763	4.0837
3.13621	3.9773
3.12487	3.8862
3.11361	3.8091
3.10243	3.7471
3.09133	3.7192
3.0803	3.6838
3.06936	3.6475
3.0585	3.6106
3.04771	3.5698
3.037	3.5251
3.02636	3.4717
3.0158	3.4075
3.00531	3.365
2.99489	3.3127
2.98454	3.2869
2.97427	3.2468
2.96407	3.2161
2.95393	3.1963
2.94387	3.1792
2.93387	3.1631
2.92394	3.1655
2.91408	3.1567
2.90429	3.1416
2.89456	3.144
2.88489	3.1389
2.87529	3.1482
2.86576	3.1267
2.85628	3.1235
2.84687	3.1152
2.83752	3.0864
2.82823	3.0688
2.81901	3.0344
2.80984	3.0205
2.80073	2.9717
2.79168	2.9531
2.78269	2.9536
2.77376	2.9683
2.76488	2.9626
2.75606	2.9465
2.7473	2.978
2.73859	3.0005
2.72994	2.9214
2.72134	2.5908
2.7128	2.8638
2.70431	3.969
2.69587	4.6255
2.68748	5.0874
2.67915	5.7527
2.67087	6.4424
2.66264	6.9717
2.65446	7.2793
2.64633	7.4929
2.63825	7.6245
2.63021	7.7529
2.62223	7.8567
2.6143	7.9072
2.60641	7.9482
2.59857	7.9624
2.59078	8.0178
2.58304	8.0288
2.57534	8.0679
2.56768	8.0674
2.56008	8.1367
2.55251	8.1743
2.54499	8.2549
2.53752	8.2822
2.53009	8.3232
2.5227	8.3432
2.51536	8.3816
2.50806	8.4809
2.5008	8.5002
2.49358	8.5256
2.4864	8.5718
2.47927	8.5952
2.47218	8.5229
2.46512	8.5073
2.45811	8.5449
2.45114	8.6379
2.4442	8.686
2.43731	8.7258
2.43045	8.7473
2.42363	8.8215
2.41685	8.9848
2.41011	9.0307
2.40341	8.8843
2.39674	8.5547
2.39011	8.4184
2.38352	8.522
2.37696	8.769
2.37044	9.0815
2.36395	9.2846
2.35751	9.3489
2.35109	9.4292
2.34471	9.4856
2.33836	9.3784
2.33205	9.062
2.32578	8.5334
2.31953	7.8574
2.31332	7.4599
2.30714	8.0581
2.301	8.6301
2.29489	8.4814
2.28881	8.6789
2.28276	9.2756
2.27675	9.7842
2.27076	10.0097
2.26481	10.1684
2.25889	10.3095
2.253	10.3784
2.24714	10.3967
2.24131	10.4218
2.23551	10.459
2.22974	10.4895
2.224	10.5029
2.21829	10.5569
2.21261	10.583
2.20696	10.5979
2.20134	10.6047
2.19574	10.6147
2.19018	10.6211
2.18464	10.6758
2.17913	10.6494
2.17365	10.675
2.16819	10.7102
2.16277	10.7141
2.15737	10.7248
2.15199	10.7339
2.14665	10.6924
2.14133	10.7163
2.13603	10.706
2.13077	10.7295
2.12552	10.7236
2.12031	10.6801
2.11512	10.7549
2.10995	10.7553
2.10481	10.749
2.0997	10.7802
2.09461	10.7705
2.08954	10.8066
2.0845	10.8193
2.07948	10.8047
