Name: Brown sandy loam
Type: Soils
Class: Alfisol
Subclass: Paleustalf
Particle Size: see additional information
Sample No.: 87P2410
Owner: JHU
Origin: Llano Co., Tx. via USDA Soil Conservation service.
Description: The parent material is granitic rock from level or
Measurement: Directional (10 degree) hemispherical reflectance
X Units: Wavelength (micrometers)
Y Units: Reflectance (percent)
wavelength	value
14.011	2.052
13.715	2.1626
13.43	2.2368
13.158	2.3418
12.896	2.572
12.644	2.0879
12.402	1.8455
12.169	1.7827
11.945	2.4087
11.729	2.8323
11.52	2.8982
11.319	3.0059
11.125	3.0767
10.937	2.9263
10.756	3.0268
10.58	3.1113
10.41	3.3249
10.245	3.5903
10.086	4.0933
9.931	4.7092
9.781	4.9424
9.636	5.5676
9.495	6.1631
9.358	7.5227
9.225	7.9106
9.095	7.5703
8.969	7.2109
8.847	7.6484
8.727	7.5224
8.612	6.3996
8.499	7.8313
8.389	8.1833
8.281	8.5632
8.177	8.3235
8.075	5.8066
7.976	3.9863
7.879	2.6882
7.784	2.1003
7.692	1.8415
7.601	1.6421
7.513	1.5278
7.427	1.477
7.343	1.4185
7.261	1.48
7.18	1.5027
7.102	1.6169
7.025	1.6565
6.949	1.7544
6.875	1.8867
6.803	2.0615
6.733	2.1733
6.663	2.2729
6.596	2.2668
6.529	2.2136
6.464	2.3948
6.4	2.3315
6.338	2.1099
6.276	1.9287
6.216	1.7546
6.157	1.6909
6.099	1.7766
6.042	1.8481
5.986	2.0745
5.931	2.2778
5.878	2.8135
5.825	3.3721
5.773	3.9392
5.722	4.4455
5.672	4.5745
5.623	4.2444
5.574	4.2405
5.527	4.6641
5.48	5.2598
5.434	5.4858
5.389	4.6933
5.345	4.2576
5.301	4.521
5.258	5.2244
5.215	6.3945
5.174	6.905
5.133	7.0808
5.093	7.2595
5.053	7.2004
5.014	7.3254
4.975	7.959
4.937	8.9961
4.9	10.623
4.863	13.1501
4.827	14.6152
4.791	15.4045
4.756	16.1294
4.721	16.5141
4.687	15.8129
4.654	16.801
4.62	18.1965
4.588	18.9309
4.556	19.2922
4.524	18.6457
4.492	17.4135
4.461	17.5092
4.431	18.5456
4.401	19.7163
4.371	21.2089
4.342	22.4282
4.313	22.8281
4.284	22.5585
4.256	23.5881
4.229	23.6992
4.201	24.4943
4.174	24.9741
4.147	25.3647
4.121	25.7944
4.095	26.2045
4.069	26.4645
4.044	26.4494
4.019	26.3051
3.994	26.2829
3.97	26.3178
3.945	26.343
3.921	26.27
3.898	25.9553
3.875	25.4997
3.852	25.1093
3.829	24.8217
3.806	24.4425
3.784	23.9682
3.762	23.4169
3.74	22.8049
3.719	22.3881
3.698	22.0463
3.677	21.6447
3.656	21.1479
3.636	20.6103
3.615	20.091
3.595	19.4309
3.575	18.8168
3.556	18.1779
3.536	17.4018
3.517	16.3933
3.498	15.4165
3.479	14.9431
3.461	14.3884
3.442	13.6469
3.424	12.56
3.406	12.2321
3.388	12.1418
3.371	11.8718
3.353	11.6394
3.336	11.3174
3.319	10.8303
3.302	10.3152
3.285	9.7837
3.269	9.2473
3.252	8.7588
3.236	8.3139
3.22	7.9255
3.204	7.5544
3.188	7.1846
3.173	6.8303
3.157	6.4621
3.142	6.1855
3.127	5.8762
3.112	5.6428
3.097	5.4392
3.082	5.2771
3.067	5.1863
3.053	5.0691
3.039	5.0571
3.025	4.9172
3.011	4.8008
2.997	4.7419
2.983	4.6741
2.969	4.4966
2.956	4.522
2.942	4.4753
2.929	4.4609
2.916	4.4394
2.903	4.5608
2.89	4.5244
2.877	4.6863
2.864	4.7583
2.852	4.8271
2.839	4.7585
2.827	4.771
2.814	4.6807
2.802	4.4971
2.79	4.3791
2.778	4.082
2.766	3.697
2.755	3.5835
2.743	4.2082
2.731	5.0032
2.72	6.199
2.708	6.6531
2.697	8.9765
2.686	18.8916
2.675	25.3061
2.664	28.7433
2.653	31.3526
2.642	32.8777
2.632	33.5395
2.621	34.0104
2.61	35.0121
2.6	35.5424
2.59	35.8219
2.579	36.1303
2.569	36.1913
2.559	36.8058
2.549	36.9427
2.539	37.1879
2.529	37.3437
2.519	37.4474
2.509	37.5977
2.5	37.8441
2.49	38.0294
2.481	38.3475
2.471	38.8192
2.462	39.1066
2.452	39.4627
2.443	39.7985
2.434	40.1454
2.425	40.7179
2.416	41.0194
2.407	41.4845
2.398	41.5473
2.389	41.7199
2.38	41.8388
2.372	42.2435
2.363	42.5414
2.354	42.6986
2.346	42.9708
2.337	43.3607
2.329	43.5592
2.321	43.7909
2.312	43.7311
2.304	43.8217
2.296	43.9342
2.288	44.1371
2.28	44.3639
2.272	44.4952
2.264	44.5389
2.256	44.5233
2.248	44.389
2.24	44.2333
2.233	44.2394
2.225	44.0797
2.217	43.6251
2.21	42.6193
2.202	43.1615
2.195	43.6268
2.187	44.069
2.18	44.5076
2.173	45.0125
2.166	45.2233
2.158	45.4559
2.151	45.8102
2.144	46.0734
2.137	46.1915
2.13	46.2289
2.123	46.2743
2.116	46.2516
2.109	46.3055
2.102	46.2614
2.095	46.2452
2.089	46.3312
2.082	46.3119
2.06	45.7592
2.028	45.1815
1.996	44.3061
1.964	40.7729
1.932	38.2436
1.9	37.9915
1.868	46.5806
1.836	48.6911
1.804	48.4522
1.772	48.7873
1.74	48.8393
1.708	48.1675
1.676	47.5104
1.644	47.1403
1.612	47.4449
1.58	46.4183
1.548	46.0167
1.516	45.6942
1.484	44.5214
1.452	43.5878
1.42	42.5536
1.388	43.1143
1.356	44.3666
1.324	44.1012
1.292	44.2503
1.26	43.1819
1.228	42.3755
1.196	41.9855
1.164	40.8864
1.132	39.8564
1.1	38.6413
1.068	37.77
1.036	36.6681
1.004	35.0969
0.972	33.8828
0.94	32.0427
0.908	30.4233
0.876	29.0666
0.844	27.6166
0.812	26.0947
0.795	24.4304
0.787	24.145
0.779	23.5372
0.771	22.8702
0.763	22.1702
0.755	21.77
0.747	21.2535
0.739	20.5302
0.731	19.9524
0.723	19.3778
0.715	18.8568
0.707	18.4266
0.699	17.8961
0.691	17.07
0.683	16.2924
0.675	15.9461
0.667	15.4739
0.659	15.0302
0.651	14.695
0.643	14.0883
0.635	13.4918
0.627	12.8832
0.619	12.6208
0.611	12.2518
0.603	11.7573
0.595	11.4933
0.587	11.2061
0.579	10.4055
0.571	9.7174
0.563	8.9478
0.555	8.0413
0.547	7.2349
0.539	6.9364
0.531	6.1068
0.523	5.9469
0.515	5.4695
0.507	4.6286
0.499	4.4567
0.491	3.7327
0.483	3.363
0.475	3.2671
0.467	2.8102
0.459	2.3949
0.451	1.9755
0.443	1.6863
0.435	1.3665
0.427	0.7244
0.419	0.1321
0.411	0
0.403	0
