Name: Nontronite Na0.33Fe2+3(Si,Al)4O10.3H2O
Type: Mineral
Class: Silicates
Subclass: Phyllosilicates (Sheet Silicates); (Smectite Group)
Particle Size: 0-2 micrometers.  (Packed powder simulates coarse.)
Sample No.: nontron.1
Owner: JHU
Wavelength Range: IR
Origin: Holen Hagen, Germany via the Hunt and Salisbury Collection
Description: Brown, earthy clay. Less than 2 �m fraction is nontronite, plus a faint
Measurement: Bidirectional reflectance
X Units: Wavelength (micrometers)
Y Units: Reflectance (percent)
wavelength	value
25.0442	16.5878
24.3388	17.4433
23.6719	18.2534
23.0407	18.8525
22.4422	18.7783
21.8741	18.728
21.334	18.0556
20.8199	17.6743
20.33	20.2617
19.8627	20.7487
19.4163	20.3701
18.9896	20.4848
18.5812	20.0881
18.19	18.7236
17.815	15.7072
17.4551	12.3855
17.1094	10.0493
16.7772	8.8198
16.4576	7.9665
16.15	7.6018
15.8537	7.6301
15.568	7.9258
15.2925	8.2439
15.0265	8.5185
14.7697	8.6452
14.5214	8.3811
14.2814	8.302
14.0492	8.458
13.8244	8.6565
13.6067	8.8252
13.3957	9.0136
13.1912	9.2156
12.9929	9.3994
12.8004	9.5471
12.6135	9.6638
12.432	9.8017
12.2557	9.9995
12.0843	9.7456
11.9176	9.9477
11.7555	9.9963
11.5977	10.1472
11.444	10.1819
11.2944	10.2507
11.1487	10.6364
11.0067	10.9958
10.8682	11.3467
10.7332	11.6799
10.6015	12.0188
10.473	12.3906
10.3476	12.7702
10.2251	13.1789
10.1056	13.6787
9.98873	14.3772
9.87458	15.2038
9.763	16.1066
9.65392	17.0197
9.54724	17.5371
9.44291	17.8076
9.34082	17.5449
9.24091	16.7841
9.14312	15.8779
9.04739	15.1418
8.95363	14.7912
8.8618	14.7111
8.77183	14.4538
8.68368	13.0544
8.59727	10.4511
8.51257	7.6855
8.42951	4.9741
8.34807	3.2507
8.26819	2.8386
8.18981	2.9448
8.11292	3.2339
8.03745	3.6218
7.96337	4.0271
7.89064	4.4309
7.81924	4.8154
7.74911	5.1819
7.68023	5.4931
7.61256	5.7224
7.54608	5.9109
7.48074	6.0837
7.41653	6.2261
7.35341	6.3576
7.29136	6.4658
7.23034	6.5674
7.17033	6.6755
7.11132	6.7629
7.05327	6.8252
6.99616	6.8965
6.93996	6.9555
6.88467	7.0256
6.83024	7.0871
6.77667	7.1262
6.72393	7.2051
6.67201	7.2588
6.62089	7.3037
6.57054	7.2871
6.52095	7.3108
6.4721	7.2954
6.42398	7.2256
6.37657	7.1596
6.32986	7
6.28382	6.7639
6.23845	6.4809
6.19373	6.2937
6.14965	6.1843
6.10619	6.1274
6.06334	6.1567
6.02109	6.1992
5.97942	6.3074
5.93832	6.5044
5.89778	6.7866
5.8578	7.074
5.81835	7.2549
5.77943	7.5139
5.74103	7.7409
5.70314	7.863
5.66574	7.9365
5.62883	7.9536
5.5924	7.9585
5.55644	7.9463
5.52093	7.9536
5.48588	7.9883
5.45127	8.0295
5.41709	8.0776
5.38334	8.1452
5.35	8.2065
5.31708	8.3061
5.28456	8.3782
5.25243	8.4475
5.2207	8.511
5.18934	8.5605
5.15836	8.6284
5.12775	8.7163
5.09749	8.8122
5.0676	8.9184
5.03805	9.0383
5.00884	9.1577
4.97998	9.2571
4.95144	9.3545
4.92322	9.4616
4.89533	9.5639
4.86775	9.6714
4.84048	9.771
4.81351	9.8701
4.78684	9.9504
4.76047	10.0271
4.73439	10.0786
4.70859	10.1474
4.68306	10.1811
4.65782	10.2204
4.63284	10.2649
4.60814	10.303
4.58369	10.3325
4.5595	10.3574
4.53557	10.3723
4.51188	10.3901
4.48845	10.4326
4.46525	10.4651
4.44229	10.4988
4.41957	10.5373
4.39708	10.5896
4.37481	10.6384
4.35277	10.6931
4.33096	10.7451
4.30935	10.801
4.28797	10.855
4.26679	10.905
4.24583	10.9763
4.22506	11.0398
4.2045	11.0993
4.18414	11.165
4.16398	11.2236
4.14401	11.2663
4.12423	11.3132
4.10464	11.3779
4.08523	11.4301
4.066	11.4631
4.04696	11.5036
4.02809	11.5327
4.0094	11.5527
3.99088	11.5454
3.97253	11.5495
3.95435	11.5327
3.93634	11.5185
3.91848	11.4953
3.90079	11.4599
3.88326	11.4157
3.86589	11.3481
3.84867	11.2842
3.8316	11.2209
3.81468	11.1467
3.79791	11.0556
3.78129	10.9714
3.76482	10.875
3.74848	10.7939
3.73229	10.6855
3.71624	10.5757
3.70032	10.4448
3.68454	10.3139
3.6689	10.1799
3.65338	10.05
3.638	9.9218
3.62275	9.8047
3.60762	9.6877
3.59262	9.5735
3.57775	9.4392
3.56299	9.3215
3.54836	9.1867
3.53385	9.0339
3.51945	8.8652
3.50517	8.6733
3.49101	8.5954
3.47696	8.5305
3.46303	8.4018
3.4492	8.2651
3.43549	8.124
3.42188	7.948
3.40838	7.8264
3.39499	7.7856
3.38171	7.6897
3.36852	7.6418
3.35544	7.5105
3.34246	7.3872
3.32958	7.2612
3.3168	7.1291
3.30411	7.0266
3.29153	6.8943
3.27903	6.7922
3.26664	6.6662
3.25433	6.5764
3.24212	6.49
3.23	6.3823
3.21797	6.289
3.20603	6.2258
3.19418	6.1411
3.18241	6.0688
3.17074	6.0249
3.15914	5.9704
3.14763	5.9216
3.13621	5.8564
3.12487	5.8274
3.11361	5.8071
3.10243	5.7732
3.09133	5.7402
3.0803	5.7456
3.06936	5.7197
3.0585	5.7077
3.04771	5.7036
3.037	5.6963
3.02636	5.6628
3.0158	5.6411
3.00531	5.5998
2.99489	5.6108
2.98454	5.5911
2.97427	5.5564
2.96407	5.5476
2.95393	5.5361
2.94387	5.5151
2.93387	5.4895
2.92394	5.4822
2.91408	5.4678
2.90429	5.4453
2.89456	5.4429
2.88489	5.4277
2.87529	5.4072
2.86576	5.4204
2.85628	5.4123
2.84687	5.4001
2.83752	5.3413
2.82823	5.2844
2.81901	5.2178
2.80984	5.133
2.80073	5.0027
2.79168	4.8789
2.78269	4.8054
2.77376	4.801
2.76488	4.7849
2.75606	4.7788
2.7473	4.7844
2.73859	4.822
2.72994	4.8967
2.72134	5.0852
2.7128	5.4143
2.70431	5.9656
2.69587	6.5535
2.68748	7.2502
2.67915	7.7854
2.67087	8.2104
2.66264	8.7302
2.65446	9.0097
2.64633	9.249
2.63825	9.4602
2.63021	9.6079
2.62223	9.7844
2.6143	9.9089
2.60641	9.9656
2.59857	10.1274
2.59078	10.197
2.58304	10.2478
2.57534	10.3169
2.56768	10.3977
2.56008	10.4304
2.55251	10.4675
2.54499	10.5073
2.53752	10.5735
2.53009	10.5847
2.5227	10.6123
2.51536	10.6352
2.50806	10.6592
2.5008	10.7036
2.49358	10.7654
2.4864	10.9311
2.47927	11.1181
2.47218	11.2275
2.46512	11.2619
2.45811	11.4074
2.45114	11.4824
2.4442	11.5122
2.43731	11.5688
2.43045	11.6201
2.42363	11.624
2.41685	11.582
2.41011	11.5317
2.40341	11.5058
2.39674	11.5385
2.39011	11.7368
2.38352	11.9951
2.37696	12.2553
2.37044	12.4477
2.36395	12.6054
2.35751	12.7505
2.35109	12.9575
2.34471	13.0866
2.33836	13.2055
2.33205	13.2143
2.32578	13.2702
2.31953	13.1967
2.31332	13.0263
2.30714	12.6653
2.301	12.1853
2.29489	11.6633
2.28881	11.3386
2.28276	11.5122
2.27675	11.9885
2.27076	12.6142
2.26481	13.1513
2.25889	13.5918
2.253	13.7285
2.24714	13.812
2.24131	13.7795
2.23551	13.792
2.22974	13.7619
2.224	13.853
2.21829	14.063
2.21261	14.219
2.20696	14.3645
2.20134	14.5019
2.19574	14.5669
2.19018	14.593
2.18464	14.6733
2.17913	14.7378
2.17365	14.9211
2.16819	14.9907
2.16277	15.06
2.15737	15.1582
2.15199	15.1106
2.14665	15.1311
2.14133	15.1809
2.13603	15.1965
2.13077	15.1508
2.12552	15.1692
2.12031	15.2375
2.11512	15.1972
2.10995	15.2483
2.10481	15.2666
2.0997	15.2473
2.09461	15.2834
2.08954	15.3618
2.0845	15.3359
2.07948	15.3322
