Name: Augite (Ca,Na)(Mg,Fe,Al,Ti)(Si,Al)2O6
Type: Mineral
Class: Silicates
Subclass: Inosilicates (Pyroxene Group - single chain)
Particle Size: Coarse  (74-250 Micrometers)
Sample No.: augite.1
Owner: JHU
Wavelength Range: IR
Origin: Sample from Monteagle Township, Hostings Co., Ontario,
Description: Sample consisted of  fragments of well-formed crystal(s),
Measurement: Bidirectional reflectance
X Units: Wavelength (micrometers)
Y Units: Reflectance (percent)
wavelength	value
25.0442	4.6606
24.3388	3.7681
23.6719	3.7273
23.0407	4.1619
22.4422	5.1887
21.8741	6.0417
21.334	6.7678
20.8199	6.2305
20.33	6.0456
19.8627	6.8584
19.4163	7.5366
18.9896	7.8965
18.5812	8.2583
18.19	8.0625
17.815	6.9424
17.4551	4.8232
17.1094	2.6103
16.7772	1.4717
16.4576	1.4102
16.15	1.646
15.8537	2.0134
15.568	1.6965
15.2925	1.583
15.0265	1.8552
14.7697	1.7131
14.5214	1.5984
14.2814	1.6514
14.0492	1.7483
13.8244	1.8398
13.6067	1.916
13.3957	1.9748
13.1912	2.0486
12.9929	2.1616
12.8004	2.2075
12.6135	2.3201
12.432	2.4673
12.2557	2.5635
12.0843	2.7568
11.9176	3.1177
11.7555	3.8896
11.5977	4.7168
11.444	5.1653
11.2944	5.3176
11.1487	5.4524
11.0067	5.8262
10.8682	5.9636
10.7332	5.2786
10.6015	5.688
10.473	5.8928
10.3476	5.5156
10.2251	3.6392
10.1056	2.636
9.98873	2.8464
9.87458	2.9731
9.763	2.9944
9.65392	3.0837
9.54724	3.573
9.44291	4.5698
9.34082	5.3054
9.24091	5.583
9.14312	5.801
9.04739	6.0793
8.95363	6.4133
8.8618	6.5305
8.77183	5.7632
8.68368	4.2248
8.59727	2.5876
8.51257	1.3437
8.42951	0.6399
8.34807	0.6877
8.26819	0.7893
8.18981	0.8857
8.11292	0.957
8.03745	1.0212
7.96337	1.0732
7.89064	1.1492
7.81924	1.217
7.74911	1.2905
7.68023	1.3796
7.61256	1.4421
7.54608	1.4976
7.48074	1.5647
7.41653	1.6335
7.35341	1.6592
7.29136	1.6792
7.23034	1.7422
7.17033	1.8091
7.11132	1.896
7.05327	2.0015
6.99616	2.0771
6.93996	2.1145
6.88467	2.0818
6.83024	2.0483
6.77667	1.9734
6.72393	1.8745
6.67201	1.8489
6.62089	1.8152
6.57054	1.7073
6.52095	1.6208
6.4721	1.6248
6.42398	1.6912
6.37657	1.7883
6.32986	1.8325
6.28382	1.8755
6.23845	1.9473
6.19373	1.9563
6.14965	1.8955
6.10619	1.9163
6.06334	2.0459
6.02109	2.1951
5.97942	2.5215
5.93832	2.9311
5.89778	3.1919
5.8578	3.2998
5.81835	3.5339
5.77943	3.8235
5.74103	4.0015
5.70314	4.0796
5.66574	4.0649
5.62883	3.9966
5.5924	3.9031
5.55644	3.8249
5.52093	3.7297
5.48588	3.5017
5.45127	3.2329
5.41709	3.0381
5.38334	2.9028
5.35	2.7541
5.31708	2.6487
5.28456	2.6255
5.25243	2.6287
5.2207	2.5469
5.18934	2.404
5.15836	2.2849
5.12775	2.1814
5.09749	2.1453
5.0676	2.2087
5.03805	2.3606
5.00884	2.4831
4.97998	2.5505
4.95144	2.5915
4.92322	2.6389
4.89533	2.6904
4.86775	2.8242
4.84048	3.0129
4.81351	3.2307
4.78684	3.4319
4.76047	3.7043
4.73439	3.9858
4.70859	4.3374
4.68306	4.5649
4.65782	4.8911
4.63284	5.3679
4.60814	5.7881
4.58369	6.1821
4.5595	6.6177
4.53557	7.0564
4.51188	7.3347
4.48845	7.5151
4.46525	7.6435
4.44229	7.7532
4.41957	7.862
4.39708	7.9636
4.37481	8.0744
4.35277	8.1679
4.33096	8.2463
4.30935	8.3218
4.28797	8.3967
4.26679	8.4768
4.24583	8.5478
4.22506	8.6125
4.2045	8.6733
4.18414	8.7158
4.16398	8.7654
4.14401	8.7983
4.12423	8.8462
4.10464	8.8886
4.08523	8.9209
4.066	8.9455
4.04696	8.9704
4.02809	8.9775
4.0094	8.9739
3.99088	8.9441
3.97253	8.9453
3.95435	9.0149
3.93634	9.0866
3.91848	9.1443
3.90079	9.1662
3.88326	9.1848
3.86589	9.2009
3.84867	9.2097
3.8316	9.2278
3.81468	9.239
3.79791	9.279
3.78129	9.2878
3.76482	9.2783
3.74848	9.2866
3.73229	9.3008
3.71624	9.2876
3.70032	9.2849
3.68454	9.2793
3.6689	9.2485
3.65338	9.2351
3.638	9.2151
3.62275	9.1787
3.60762	9.1565
3.59262	9.1377
3.57775	9.1006
3.56299	9.0534
3.54836	9.0134
3.53385	8.9729
3.51945	8.8933
3.50517	8.8005
3.49101	8.768
3.47696	8.7273
3.46303	8.7236
3.4492	8.6643
3.43549	8.6084
3.42188	8.5144
3.40838	8.459
3.39499	8.4621
3.38171	8.4121
3.36852	8.3747
3.35544	8.3154
3.34246	8.2898
3.32958	8.2544
3.3168	8.2053
3.30411	8.1321
3.29153	8.0671
3.27903	7.9968
3.26664	7.905
3.25433	7.8108
3.24212	7.7185
3.23	7.6206
3.21797	7.5156
3.20603	7.3955
3.19418	7.3054
3.18241	7.2019
3.17074	7.0818
3.15914	6.9763
3.14763	6.8591
3.13621	6.7392
3.12487	6.6284
3.11361	6.5207
3.10243	6.4175
3.09133	6.3193
3.0803	6.2273
3.06936	6.1396
3.0585	6.0603
3.04771	5.9665
3.037	5.8767
3.02636	5.7827
3.0158	5.6951
3.00531	5.584
2.99489	5.508
2.98454	5.4143
2.97427	5.3159
2.96407	5.2058
2.95393	5.081
2.94387	4.927
2.93387	4.7659
2.92394	4.6035
2.91408	4.438
2.90429	4.303
2.89456	4.1907
2.88489	4.1662
2.87529	4.1553
2.86576	4.1372
2.85628	4.1052
2.84687	4.1059
2.83752	4.0815
2.82823	4.1614
2.81901	4.439
2.80984	4.6975
2.80073	4.8611
2.79168	4.9094
2.78269	4.9597
2.77376	5.009
2.76488	5.0889
2.75606	5.2021
2.7473	5.2295
2.73859	5.5029
2.72994	4.9541
2.72134	5.4504
2.7128	6.7214
2.70431	7.0815
2.69587	7.1887
2.68748	7.2458
2.67915	7.2776
2.67087	7.2737
2.66264	7.3581
2.65446	7.3034
2.64633	7.2624
2.63825	7.1899
2.63021	7.1201
2.62223	7.0932
2.6143	7.0154
2.60641	6.9595
2.59857	6.9084
2.59078	6.8618
2.58304	6.8232
2.57534	6.7373
2.56768	6.6748
2.56008	6.6186
2.55251	6.5578
2.54499	6.51
2.53752	6.4514
2.53009	6.3989
2.5227	6.2951
2.51536	6.2356
2.50806	6.1658
2.5008	6.1313
2.49358	6.0432
2.4864	5.9739
2.47927	5.949
2.47218	5.8559
2.46512	5.8083
2.45811	5.7546
2.45114	5.6946
2.4442	5.6577
2.43731	5.5635
2.43045	5.5107
2.42363	5.4458
2.41685	5.3865
2.41011	5.3484
2.40341	5.3076
2.39674	5.2231
2.39011	5.1706
2.38352	5.1362
2.37696	5.0871
2.37044	5.0261
2.36395	4.987
2.35751	4.8823
2.35109	4.8865
2.34471	4.8362
2.33836	4.7869
2.33205	4.749
2.32578	4.7087
2.31953	4.6448
2.31332	4.5857
2.30714	4.5732
2.301	4.5
2.29489	4.5007
2.28881	4.4438
2.28276	4.3989
2.27675	4.3564
2.27076	4.3457
2.26481	4.3035
2.25889	4.2402
2.253	4.2048
2.24714	4.1909
2.24131	4.1328
2.23551	4.1299
2.22974	4.0989
2.224	4.0591
2.21829	4.0195
2.21261	4.0273
2.20696	3.9587
2.20134	3.8987
2.19574	3.8872
2.19018	3.8857
2.18464	3.8398
2.17913	3.8125
2.17365	3.7632
2.16819	3.7632
2.16277	3.728
2.15737	3.7229
2.15199	3.6453
2.14665	3.6521
2.14133	3.6025
2.13603	3.5928
2.13077	3.5813
2.12552	3.5351
2.12031	3.49
2.11512	3.4924
2.10995	3.4538
2.10481	3.4639
2.0997	3.4341
2.09461	3.4209
2.08954	3.3603
2.0845	3.353
2.07948	3.2969
