Name: Goethite a-Fe+3O(OH)
Type: Mineral
Class: Hydroxides
Subclass: (Goethite Group)
Particle Size: Coarse  (74-250 Micrometers)
Sample No.: goethite.2
Owner: JHU
Wavelength Range: IR
Origin: Sample from Calavi, Bolivia via the Smithsonian (sample no.
Description: The sample was a 2 cm x 2 cm x 2 cm layered botryoidal
Measurement: Bidirectional reflectance
X Units: Wavelength (micrometers)
Y Units: Reflectance (percent)
wavelength	value
25.0442	7.3276
24.3388	7.4358
23.6719	7.1135
23.0407	6.7388
22.4422	6.845
21.8741	7.114
21.334	7.1804
20.8199	6.978
20.33	6.4333
19.8627	5.4421
19.4163	4.6799
18.9896	4.2065
18.5812	3.9202
18.19	3.5383
17.815	3.4719
17.4551	3.3044
17.1094	3.2261
16.7772	3.155
16.4576	3.0503
16.15	2.9741
15.8537	2.8135
15.568	2.4817
15.2925	2.3
15.0265	2.1626
14.7697	1.9338
14.5214	1.7913
14.2814	1.7756
14.0492	1.8093
13.8244	1.8686
13.6067	1.9521
13.3957	2.0779
13.1912	2.2219
12.9929	2.4438
12.8004	2.5847
12.6135	2.6614
12.432	2.5574
12.2557	2.3325
12.0843	2.1301
11.9176	2.113
11.7555	2.198
11.5977	2.3164
11.444	2.4216
11.2944	2.4744
11.1487	2.3308
11.0067	2.032
10.8682	1.6963
10.7332	1.5537
10.6015	1.5503
10.473	1.5684
10.3476	1.5876
10.2251	1.6013
10.1056	1.6121
9.98873	1.6082
9.87458	1.6155
9.763	1.6074
9.65392	1.6345
9.54724	1.6675
9.44291	1.6709
9.34082	1.6838
9.24091	1.7114
9.14312	1.7239
9.04739	1.7422
8.95363	1.7769
8.8618	1.7815
8.77183	1.7803
8.68368	1.7996
8.59727	1.8362
8.51257	1.8828
8.42951	1.9348
8.34807	1.9905
8.26819	2.0339
8.18981	2.0845
8.11292	2.0957
8.03745	2.1069
7.96337	2.1223
7.89064	2.1313
7.81924	2.1182
7.74911	2.1091
7.68023	2.093
7.61256	2.0618
7.54608	2.0391
7.48074	2.029
7.41653	2.0344
7.35341	2.0583
7.29136	2.0566
7.23034	2.0383
7.17033	2.0469
7.11132	2.0535
7.05327	2.0276
6.99616	2.0178
6.93996	2.03
6.88467	2.0488
6.83024	2.0378
6.77667	2.0474
6.72393	2.0427
6.67201	2.0295
6.62089	2.02
6.57054	1.9917
6.52095	2.0078
6.4721	2.0027
6.42398	1.9914
6.37657	2.0193
6.32986	2.0391
6.28382	2.0403
6.23845	2.0461
6.19373	2.0232
6.14965	2.0222
6.10619	2
6.06334	1.9922
6.02109	2.0107
5.97942	2.0124
5.93832	2.0286
5.89778	2.052
5.8578	2.0884
5.81835	2.0796
5.77943	2.1008
5.74103	2.1038
5.70314	2.0925
5.66574	2.0752
5.62883	2.0725
5.5924	2.0747
5.55644	2.0762
5.52093	2.103
5.48588	2.1394
5.45127	2.1719
5.41709	2.2048
5.38334	2.2378
5.35	2.2554
5.31708	2.2805
5.28456	2.2837
5.25243	2.2903
5.2207	2.2905
5.18934	2.2932
5.15836	2.3132
5.12775	2.3132
5.09749	2.3291
5.0676	2.3298
5.03805	2.3401
5.00884	2.3542
4.97998	2.3589
4.95144	2.3777
4.92322	2.3818
4.89533	2.3943
4.86775	2.4119
4.84048	2.4314
4.81351	2.4309
4.78684	2.4416
4.76047	2.4597
4.73439	2.4619
4.70859	2.4751
4.68306	2.4773
4.65782	2.4761
4.63284	2.4958
4.60814	2.4951
4.58369	2.5005
4.5595	2.4946
4.53557	2.4939
4.51188	2.4895
4.48845	2.4949
4.46525	2.4829
4.44229	2.4878
4.41957	2.4853
4.39708	2.4739
4.37481	2.4646
4.35277	2.4646
4.33096	2.4541
4.30935	2.4614
4.28797	2.4534
4.26679	2.4311
4.24583	2.4397
4.22506	2.4402
4.2045	2.4258
4.18414	2.4197
4.16398	2.3921
4.14401	2.386
4.12423	2.3823
4.10464	2.3569
4.08523	2.3481
4.066	2.3252
4.04696	2.3218
4.02809	2.3035
4.0094	2.2905
3.99088	2.2783
3.97253	2.2454
3.95435	2.2344
3.93634	2.2244
3.91848	2.2158
3.90079	2.1999
3.88326	2.1699
3.86589	2.155
3.84867	2.1365
3.8316	2.1211
3.81468	2.0991
3.79791	2.0874
3.78129	2.0798
3.76482	2.053
3.74848	2.0381
3.73229	2.0254
3.71624	2.0044
3.70032	1.9856
3.68454	1.9763
3.6689	1.969
3.65338	1.9475
3.638	1.9426
3.62275	1.9265
3.60762	1.9202
3.59262	1.9087
3.57775	1.8916
3.56299	1.8933
3.54836	1.8811
3.53385	1.8635
3.51945	1.8606
3.50517	1.8567
3.49101	1.8625
3.47696	1.8486
3.46303	1.8437
3.4492	1.8381
3.43549	1.8308
3.42188	1.8337
3.40838	1.8198
3.39499	1.8115
3.38171	1.7996
3.36852	1.8083
3.35544	1.7844
3.34246	1.791
3.32958	1.7732
3.3168	1.7761
3.30411	1.7683
3.29153	1.7585
3.27903	1.7637
3.26664	1.7434
3.25433	1.7458
3.24212	1.7341
3.23	1.7205
3.21797	1.7205
3.20603	1.6843
3.19418	1.6973
3.18241	1.6838
3.17074	1.6506
3.15914	1.6426
3.14763	1.6111
3.13621	1.6013
3.12487	1.5757
3.11361	1.561
3.10243	1.5315
3.09133	1.5281
3.0803	1.5107
3.06936	1.4934
3.0585	1.4692
3.04771	1.4748
3.037	1.468
3.02636	1.4617
3.0158	1.459
3.00531	1.4336
2.99489	1.447
2.98454	1.4392
2.97427	1.4192
2.96407	1.4123
2.95393	1.4399
2.94387	1.426
2.93387	1.4331
2.92394	1.4148
2.91408	1.4187
2.90429	1.4248
2.89456	1.4341
2.88489	1.4333
2.87529	1.4231
2.86576	1.4268
2.85628	1.426
2.84687	1.4182
2.83752	1.4282
2.82823	1.4177
2.81901	1.447
2.80984	1.4548
2.80073	1.4917
2.79168	1.5134
2.78269	1.5566
2.77376	1.6311
2.76488	1.6963
2.75606	1.8015
2.7473	1.9663
2.73859	2.1545
2.72994	2.395
2.72134	2.6199
2.7128	2.8525
2.70431	3.0542
2.69587	3.2873
2.68748	3.4646
2.67915	3.8201
2.67087	4.0686
2.66264	4.2729
2.65446	4.4377
2.64633	4.5852
2.63825	4.7016
2.63021	4.7873
2.62223	4.9026
2.6143	4.9907
2.60641	5.0691
2.59857	5.1828
2.59078	5.2024
2.58304	5.2764
2.57534	5.3391
2.56768	5.3674
2.56008	5.3738
2.55251	5.4111
2.54499	5.4404
2.53752	5.4411
2.53009	5.3967
2.5227	5.4123
2.51536	5.4067
2.50806	5.4245
2.5008	5.414
2.49358	5.4299
2.4864	5.4045
2.47927	5.4075
2.47218	5.4475
2.46512	5.4387
2.45811	5.4551
2.45114	5.4673
2.4442	5.539
2.43731	5.5539
2.43045	5.584
2.42363	5.6228
2.41685	5.6247
2.41011	5.708
2.40341	5.7283
2.39674	5.7607
2.39011	5.8118
2.38352	5.8977
2.37696	5.9907
2.37044	6.1057
2.36395	6.2058
2.35751	6.2895
2.35109	6.3835
2.34471	6.5137
2.33836	6.5515
2.33205	6.6262
2.32578	6.6645
2.31953	6.7556
2.31332	6.7893
2.30714	6.8733
2.301	6.9704
2.29489	7.0654
2.28881	7.146
2.28276	7.2536
2.27675	7.3381
2.27076	7.3957
2.26481	7.4949
2.25889	7.6494
2.253	7.7632
2.24714	7.8679
2.24131	8.0032
2.23551	8.0825
2.22974	8.2102
2.224	8.302
2.21829	8.3474
2.21261	8.4768
2.20696	8.5625
2.20134	8.591
2.19574	8.667
2.19018	8.6953
2.18464	8.8325
2.17913	8.9013
2.17365	8.9306
2.16819	8.9936
2.16277	9.0683
2.15737	9.1113
2.15199	9.0498
2.14665	9.1286
2.14133	9.1377
2.13603	9.1467
2.13077	9.1968
2.12552	9.2016
2.12031	9.1889
2.11512	9.2285
2.10995	9.1933
2.10481	9.1841
2.0997	9.1758
2.09461	9.1806
2.08954	9.2231
2.0845	9.1509
2.07948	9.115
