Name: Argillaceous Shale
Type: Rocks
Class: Sedimentary
Subclass: Shale
Particle Size: 0 - 75 Micrometers
Sample No.: shale.7
Owner: JHU
Wavelength Range: All
Origin: Sample No. 386,  The Hunt and Salisbury Collection at the U.S.
Description: Sample contains microcrystalline brownish clay, quartz,
Measurement: Directional (10 Degree) Hemispherical Reflectance
X Units: Wavelength (micrometers)
Y Units: Reflectance (percent)
wavelength	value
14.983	1.7742
14.645	2.4454
14.321	1.5985
14.011	2.618
13.715	3.0078
13.43	3.3697
13.158	3.3341
12.896	2.5147
12.644	2.106
12.402	1.8017
12.169	2.9952
11.945	3.605
11.729	4.4192
11.52	4.5459
11.319	3.8111
11.125	3.7182
10.937	2.8034
10.755	2.8179
10.58	2.8645
10.41	2.7338
10.245	2.424
10.086	2.2623
9.931	2.2663
9.781	2.3757
9.636	2.5479
9.495	2.7326
9.358	3.117
9.225	3.1856
9.095	2.9971
8.969	2.9486
8.847	2.9858
8.727	2.9401
8.612	2.7153
8.499	3.1918
8.389	3.5624
8.281	4.4621
8.177	5.6395
8.075	5.5893
7.976	5.506
7.879	5.366
7.784	5.6462
7.692	6.3341
7.601	6.6327
7.513	6.9716
7.427	7.3998
7.343	7.1741
7.261	6.2486
7.18	4.7804
7.102	4.0576
7.025	3.4914
6.949	2.9417
6.875	2.748
6.803	2.8676
6.733	3.12
6.663	3.6946
6.596	4.7129
6.529	6.1702
6.464	7.9044
6.4	8.0408
6.338	7.2968
6.276	6.0471
6.216	4.4834
6.157	3.6515
6.099	3.9771
6.042	4.8147
5.986	6.2119
5.931	6.9292
5.878	8.9613
5.825	11.078
5.773	12.83
5.722	14.328
5.672	14.781
5.623	13.628
5.574	11.134
5.527	13.307
5.48	14.7
5.434	16.342
5.389	14.291
5.345	12.611
5.301	13.705
5.258	16.345
5.215	19.922
5.174	21.094
5.133	21.297
5.093	21.371
5.053	21.019
5.014	21.275
4.975	22.992
4.937	25.552
4.9	28.376
4.863	30.914
4.827	31.88
4.791	32.42
4.756	32.601
4.721	32.647
4.687	32.474
4.654	33.069
4.62	33.96
4.588	34.413
4.556	34.537
4.524	34.488
4.492	34.29
4.461	34.489
4.431	35.311
4.401	36.298
4.371	37.242
4.342	37.941
4.313	38.464
4.284	38.82
4.256	39.277
4.229	39.871
4.201	40.207
4.174	40.492
4.147	40.7
4.121	40.854
4.095	40.887
4.069	40.723
4.044	39.873
4.019	37.577
3.994	31.952
3.97	28.503
3.945	31.201
3.921	33.105
3.898	34.838
3.875	35.32
3.852	36.468
3.829	37.26
3.806	36.735
3.784	37.975
3.762	38.769
3.74	39.055
3.719	38.865
3.698	38.49
3.677	38.094
3.656	37.552
3.636	36.981
3.615	36.296
3.595	35.509
3.575	34.517
3.556	33.428
3.536	32.355
3.517	30.308
3.498	28.145
3.479	26.735
3.461	26.776
3.442	26.08
3.424	25.283
3.406	24.626
3.388	24.417
3.371	24.065
3.353	23.186
3.336	23.153
3.319	22.55
3.302	21.857
3.285	21.741
3.269	21.105
3.252	20.588
3.236	20.007
3.22	19.317
3.204	18.448
3.188	17.59
3.173	16.697
3.157	15.753
3.142	14.797
3.127	13.91
3.112	13.017
3.097	12.214
3.082	11.477
3.067	11.128
3.053	10.785
3.039	10.448
3.025	10.082
3.011	9.7412
2.997	9.4262
2.983	9.0637
2.969	8.7631
2.956	8.3004
2.942	7.9063
2.929	7.8109
2.916	8.0032
2.903	8.1917
2.89	8.3506
2.877	8.4285
2.864	8.4119
2.852	8.407
2.839	8.2069
2.827	7.8578
2.814	7.4405
2.802	6.951
2.79	6.2479
2.778	5.1157
2.766	4.2658
2.755	3.9683
2.743	4.7932
2.731	6.6981
2.72	10.149
2.708	16.486
2.697	23.574
2.686	31.761
2.675	35.252
2.664	36.987
2.653	39.139
2.642	40.206
2.632	39.927
2.621	40.257
2.61	40.724
2.6	40.817
2.59	40.926
2.579	41.375
2.569	41.575
2.559	41.72
2.549	41.947
2.539	42.05
2.529	42.106
2.519	42.164
2.509	42.224
2.5	42.311
2.49	42.38
2.481	42.468
2.471	42.502
2.462	42.629
2.452	42.695
2.443	42.791
2.434	43.051
2.425	43.33
2.416	43.648
2.407	43.888
2.398	44.053
2.389	44.203
2.38	44.277
2.372	44.323
2.363	44.294
2.354	44.188
2.346	44.147
2.337	44.301
2.329	44.608
2.321	44.838
2.312	45.035
2.304	45.24
2.296	45.361
2.288	45.451
2.28	45.505
2.272	45.495
2.264	45.24
2.256	45.118
2.248	44.953
2.24	44.782
2.233	44.508
2.225	44.195
2.217	43.941
2.21	43.825
2.202	43.979
2.195	44.358
2.187	44.726
2.18	45.062
2.173	45.362
2.166	45.478
2.158	45.613
2.151	45.598
2.144	45.673
2.137	45.588
2.13	45.569
2.123	45.561
2.116	45.549
2.109	45.502
2.102	45.49
2.095	45.527
2.089	45.498
2.082	45.508
2.06	45.117
2.028	44.364
1.996	42.825
1.964	41.556
1.932	39.945
1.9	39.444
1.868	42.057
1.836	42.693
1.804	42.857
1.772	42.525
1.74	42.194
1.708	41.929
1.676	41.599
1.644	40.986
1.612	40.609
1.58	40.589
1.548	40.054
1.516	39.22
1.484	38.526
1.452	38.029
1.42	36.811
1.388	36.8
1.356	36.483
1.324	36.411
1.292	35.319
1.26	35.481
1.228	34.496
1.196	33.789
1.164	32.817
1.132	32.697
1.1	32.228
1.068	31.638
1.036	30.934
1.004	30.217
0.972	29.533
0.94	28.926
0.908	28.332
0.876	27.896
0.844	27.464
0.812	27.236
0.795	26.887
0.787	26.546
0.779	26.296
0.771	26.084
0.763	25.984
0.755	25.598
0.747	25.44
0.739	25.301
0.731	25.019
0.723	24.66
0.715	24.533
0.707	24.395
0.699	24.311
0.691	24.165
0.683	24.127
0.675	23.726
0.667	23.466
0.659	23.224
0.651	23.263
0.643	22.721
0.635	22.519
0.627	22.476
0.619	22.168
0.611	21.971
0.603	21.575
0.595	21.485
0.587	21.325
0.579	21.156
0.571	20.912
0.563	20.405
0.555	20.191
0.547	19.635
0.539	19.536
0.531	19.502
0.523	19.174
0.515	18.665
0.507	18.373
0.499	18.119
0.491	17.767
0.483	17.67
0.475	17.306
0.467	16.85
0.459	16.423
0.451	16.203
0.443	15.937
0.435	15.589
0.427	15.238
0.419	14.931
0.411	14.472
0.403	14.056
