Name: Aragonite CaCO3
Type: Mineral
Class: Carbonates
Particle Size: Solid
Sample No.: aragonite.1
Owner: JHU
Wavelength Range: IR
Origin: Sample from Horenec, Bilina, Cechy, Czechoslovakia, via
Description: The sample was composed of two transparent, colorless
Measurement: Bidirectional reflectance
X Units: Wavelength (micrometers)
Y Units: Reflectance (percent)
wavelength	value
25.044	2.5166
24.339	0.9927
23.672	0.9653
23.041	1.2285
22.442	1.6665
21.874	1.876
21.334	2.1562
20.82	2.4487
20.33	2.6702
19.863	2.9619
19.416	3.2063
18.99	3.331
18.581	3.4997
18.19	3.6767
17.815	3.8076
17.455	3.9321
17.109	3.9956
16.777	4.1728
16.458	4.3066
16.15	4.4014
15.854	4.541
15.568	4.6601
15.292	4.7717
15.027	4.958
14.77	5.0596
14.521	5.2571
14.281	6.0054
14.049	5.5764
13.824	5.1548
13.607	5.3887
13.396	5.6077
13.191	5.7495
12.993	5.9348
12.8	6.1531
12.614	6.3528
12.432	6.7019
12.256	7.2121
12.084	8.0549
11.918	10.136
11.755	17.8808
11.598	28.7231
11.444	27.4919
11.294	10.7519
11.149	3.7971
11.007	3.9399
10.868	4.2114
10.733	4.4485
10.602	4.6247
10.473	4.7932
10.348	4.9263
10.225	5.0273
10.106	5.1355
9.989	5.2143
9.875	5.2778
9.763	5.3765
9.654	5.4565
9.547	5.5168
9.443	5.615
9.341	5.7637
9.241	6.9451
9.143	5.4509
9.047	5.6096
8.954	5.6704
8.862	5.7353
8.772	5.7905
8.684	5.8703
8.597	5.9375
8.513	5.9914
8.43	6.0615
8.348	6.146
8.268	6.2319
8.19	6.3418
8.113	6.4568
8.037	6.5574
7.963	6.699
7.891	6.8552
7.819	6.9407
7.749	7.0703
7.68	7.1765
7.613	7.354
7.546	7.5061
7.481	7.6809
7.417	7.9267
7.353	8.1963
7.291	8.52
7.23	8.9555
7.17	9.3872
7.111	10.1457
7.053	11.2417
6.996	13.063
6.94	17.5127
6.885	23.6481
6.83	23.5268
6.777	27.3791
6.724	27.8781
6.672	27.9716
6.621	27.9423
6.571	27.5356
6.521	26.9245
6.472	25.9123
6.424	23.2729
6.377	17.5205
6.33	16.467
6.284	18.5598
6.238	15.5537
6.194	11.6045
6.15	8.2431
6.106	5.4026
6.063	4.114
6.021	3.8796
5.979	3.8498
5.938	3.8945
5.898	3.9785
5.858	4.0964
5.818	4.1638
5.779	4.2053
5.741	4.2529
5.703	4.3137
5.666	4.4026
5.629	4.5576
5.592	4.3906
5.556	4.3945
5.521	4.4912
5.486	4.5503
5.451	4.6108
5.417	4.6533
5.383	4.6907
5.35	4.7297
5.317	4.7793
5.285	4.8193
5.252	4.8489
5.221	4.8708
5.189	4.904
5.158	4.9392
5.128	4.9773
5.097	4.9861
5.068	5.0127
5.038	5.0344
5.009	5.0625
4.98	5.082
4.951	5.0959
4.923	5.126
4.895	5.1299
4.868	5.1555
4.84	5.1609
4.814	5.1782
4.787	5.1799
4.76	5.2051
4.734	5.2163
4.709	5.217
4.683	5.2405
4.658	5.2576
4.633	5.2651
4.608	5.2715
4.584	5.302
4.56	5.3103
4.536	5.3193
4.512	5.3469
4.488	5.3645
4.465	5.3801
4.442	5.3874
4.42	5.4077
4.397	5.426
4.375	5.4363
4.353	5.4499
4.331	5.448
4.309	5.4556
4.288	5.4585
4.267	5.4741
4.246	5.4831
4.225	5.489
4.205	5.4934
4.184	5.4878
4.164	5.5015
4.144	5.508
4.124	5.5298
4.105	5.5327
4.085	5.5574
4.066	5.5708
4.047	5.5913
4.028	5.6001
4.009	5.5964
3.991	5.5766
3.973	5.5857
3.954	5.5752
3.936	5.5827
3.918	5.6059
3.901	5.6108
3.883	5.6211
3.866	5.6421
3.849	5.6575
3.832	5.6528
3.815	5.6562
3.798	5.6692
3.781	5.6728
3.765	5.6785
3.748	5.6868
3.732	5.7036
3.716	5.7117
3.7	5.7007
3.685	5.7107
3.669	5.7314
3.653	5.7356
3.638	5.7456
3.623	5.7529
3.608	5.7744
3.593	5.7729
3.578	5.791
3.563	5.7991
3.548	5.8098
3.534	5.8264
3.519	5.8606
3.505	5.9043
3.491	5.8755
3.477	5.8755
3.463	5.8938
3.449	5.8984
3.435	5.9407
3.422	5.9343
3.408	5.8728
3.395	5.8286
3.382	5.831
3.369	5.8179
3.355	5.8008
3.342	5.8125
3.33	5.8169
3.317	5.841
3.304	5.8432
3.292	5.8618
3.279	5.876
3.267	5.8979
3.254	5.8984
3.242	5.9194
3.23	5.928
3.218	5.9394
3.206	5.9497
3.194	5.9848
3.182	5.9822
3.171	6.0002
3.159	6.0039
3.148	6.0088
3.136	6.0014
3.125	6.0547
3.114	6.0471
3.102	6.0703
3.091	6.0625
3.08	6.084
3.069	6.1042
3.058	6.1001
3.048	6.126
3.037	6.1377
3.026	6.1357
3.016	6.1426
3.005	6.1377
2.995	6.1548
2.985	6.1775
2.974	6.1811
2.964	6.1745
2.954	6.1816
2.944	6.1836
2.934	6.1924
2.924	6.2124
2.914	6.2158
2.904	6.2402
2.895	6.2422
2.885	6.2681
2.875	6.2554
2.866	6.2661
2.856	6.2983
2.847	6.2851
2.838	6.2783
2.828	6.2969
2.819	6.3061
2.81	6.3017
2.801	6.3188
2.792	6.3174
2.783	6.3418
2.774	6.3406
2.765	6.3359
2.756	6.3413
2.747	6.3955
2.739	6.3808
2.73	6.397
2.721	6.3955
2.713	6.4211
2.704	6.4426
2.696	6.4219
2.687	6.4407
2.679	6.4609
2.671	6.4773
2.663	6.4844
2.654	6.5295
2.646	6.4814
2.638	6.5571
2.63	6.5034
2.622	6.5708
2.614	6.5493
2.606	6.5503
2.599	6.5981
2.591	6.5879
2.583	6.5869
2.575	6.5989
2.568	6.583
2.56	6.5874
2.553	6.5908
2.545	6.6152
2.538	6.5791
2.53	6.6196
2.523	6.6006
2.515	6.6369
2.508	6.6826
2.501	6.6304
2.494	6.636
2.486	6.6653
2.479	6.6611
2.472	6.6457
2.465	6.6311
2.458	6.6457
2.451	6.6594
2.444	6.6509
2.437	6.6604
2.43	6.6838
2.424	6.6719
2.417	6.6723
2.41	6.6631
2.403	6.708
2.397	6.6828
2.39	6.6897
2.384	6.7285
2.377	6.6926
2.37	6.6709
2.364	6.6709
2.358	6.6474
2.351	6.6894
2.345	6.6738
2.338	6.6391
2.332	6.6162
2.326	6.626
2.32	6.6562
2.313	6.6435
2.307	6.6367
2.301	6.6357
2.295	6.6416
2.289	6.603
2.283	6.5928
2.277	6.626
2.271	6.6142
2.265	6.6313
2.259	6.6181
2.253	6.5986
2.247	6.6103
2.241	6.6445
2.236	6.6626
2.23	6.6587
2.224	6.625
2.218	6.6172
2.213	6.6611
2.207	6.6377
2.201	6.6308
2.196	6.625
2.19	6.6426
2.185	6.6157
2.179	6.5898
2.174	6.6196
2.168	6.626
2.163	6.6269
2.157	6.6059
2.152	6.624
2.147	6.5747
2.141	6.6333
2.136	6.5708
2.131	6.5732
2.126	6.5649
2.12	6.6294
2.115	6.6396
2.11	6.5879
2.105	6.6465
2.1	6.6015
2.095	6.6328
2.09	6.6645
2.085	6.6196
2.079	6.6181
