Name: Almandine Fe3+2Al2(SiO4)3
Type: Mineral
Class: Silicates
Subclass: Nesosilicates (Isolated Tetrahedra) (Garnet Group)
Particle Size: Fine (less than 75 Micrometer)
Sample No.: almandine.1
Owner: JHU
Wavelength Range: IR
Origin: Sample from Stikine River, Fort Wrangell, Alaska, USA via the
Description: The sample was a single deep maroon crystal about 2 cm
Measurement: Bidirectional reflectance
X Units: Wavelength (micrometers)
Y Units: Reflectance (percent)
wavelength	value
25.044	1.9028
24.339	1.9932
23.672	2.3791
23.041	2.6924
22.442	3.3513
21.874	3.3428
21.334	3.1968
20.82	3.7024
20.33	3.7881
19.863	3.6435
19.416	3.0513
18.99	2.1768
18.581	2.0098
18.19	1.0564
17.815	1.7371
17.455	2.5041
17.109	2.7165
16.777	2.5969
16.458	1.8149
16.15	0.7998
15.854	0.793
15.568	0.8008
15.292	1.2659
15.027	2.0879
14.77	2.6042
14.521	2.9153
14.281	3.0525
14.049	3.321
13.824	3.3164
13.607	3.3652
13.396	3.1736
13.191	3.0701
12.993	2.9817
12.8	2.8848
12.614	2.7288
12.432	2.5425
12.256	2.3176
12.084	2.1348
11.918	1.9744
11.755	1.9182
11.598	2.1855
11.444	2.6335
11.294	2.0466
11.149	2.4509
11.007	2.7185
10.868	2.2651
10.733	1.1626
10.602	1.1172
10.473	1.8076
10.348	2.8635
10.225	3.2356
10.106	3.3389
9.989	3.3347
9.875	3.3508
9.763	3.6128
9.654	3.6059
9.547	3.2732
9.443	2.8713
9.341	2.5
9.241	1.9941
9.143	1.6113
9.047	1.5159
8.954	1.5935
8.862	1.7471
8.772	1.9053
8.684	2.0847
8.597	2.2329
8.513	2.6763
8.43	2.9487
8.348	3.2825
8.268	3.7336
8.19	4.2646
8.113	4.6196
8.037	4.8901
7.963	5.219
7.891	5.5036
7.819	5.7917
7.749	6.1035
7.68	6.2456
7.613	6.2576
7.546	6.2734
7.481	6.2861
7.417	6.2973
7.353	6.239
7.291	6.164
7.23	6.2124
7.17	6.3999
7.111	6.6052
7.053	6.8303
6.996	7.0449
6.94	7.0681
6.885	6.9668
6.83	6.8896
6.777	6.9057
6.724	6.9758
6.672	7.0766
6.621	7.2632
6.571	7.4526
6.521	7.6184
6.472	7.7893
6.424	7.9424
6.377	8.1076
6.33	8.2273
6.284	8.281
6.238	8.2595
6.194	8.2932
6.15	8.4577
6.106	8.5796
6.063	8.6445
6.021	8.6452
5.979	8.5901
5.938	8.479
5.898	8.4165
5.858	8.1758
5.818	7.6616
5.779	7.1072
5.741	6.6899
5.703	6.3745
5.666	6.1831
5.629	6.1291
5.592	6.2038
5.556	6.2844
5.521	6.3286
5.486	6.5613
5.451	6.8867
5.417	7.0403
5.383	7.1804
5.35	7.2812
5.317	7.2964
5.285	7.3496
5.252	7.57
5.221	7.8887
5.189	8.1636
5.158	8.4341
5.128	8.7402
5.097	9.0688
5.068	9.3689
5.038	9.6228
5.009	9.789
4.98	9.9468
4.951	10.1406
4.923	10.2593
4.895	10.4382
4.868	10.563
4.84	10.6423
4.814	10.7307
4.787	10.8095
4.76	10.8799
4.734	10.9416
4.709	10.9924
4.683	11.0263
4.658	11.0881
4.633	11.1626
4.608	11.2185
4.584	11.2702
4.56	11.3159
4.536	11.3362
4.512	11.3642
4.488	11.4016
4.465	11.4345
4.442	11.477
4.42	11.5273
4.397	11.5844
4.375	11.6379
4.353	11.6779
4.331	11.7104
4.309	11.7383
4.288	11.7675
4.267	11.8108
4.246	11.8401
4.225	11.8796
4.205	11.9104
4.184	11.9421
4.164	11.966
4.144	11.9758
4.124	12.0041
4.105	12.0346
4.085	12.0674
4.066	12.093
4.047	12.1301
4.028	12.1421
4.009	12.1606
3.991	12.1865
3.973	12.2014
3.954	12.2343
3.936	12.2397
3.918	12.2651
3.901	12.2868
3.883	12.2793
3.866	12.2658
3.849	12.2671
3.832	12.2651
3.815	12.2683
3.798	12.2795
3.781	12.2944
3.765	12.2832
3.748	12.2929
3.732	12.2995
3.716	12.3149
3.7	12.3147
3.685	12.3171
3.669	12.3269
3.653	12.3274
3.638	12.3347
3.623	12.3423
3.608	12.321
3.593	12.3288
3.578	12.3322
3.563	12.3237
3.548	12.2885
3.534	12.2683
3.519	12.216
3.505	12.0608
3.491	12.0888
3.477	12.1054
3.463	12.1211
3.449	12.0788
3.435	12.0127
3.422	11.8186
3.408	11.8161
3.395	11.9445
3.382	11.9575
3.369	12.0095
3.355	12.0971
3.342	12.1494
3.33	12.1587
3.317	12.1511
3.304	12.1411
3.292	12.1252
3.279	12.1081
3.267	12.0676
3.254	12.0415
3.242	12.0224
3.23	11.9926
3.218	11.9719
3.206	11.9526
3.194	11.9236
3.182	11.8901
3.171	11.8862
3.159	11.8562
3.148	11.8203
3.136	11.7688
3.125	11.7561
3.114	11.7285
3.102	11.6955
3.091	11.6504
3.08	11.6328
3.069	11.5947
3.058	11.5595
3.048	11.5298
3.037	11.4765
3.026	11.445
3.016	11.3857
3.005	11.3418
2.995	11.3213
2.985	11.2885
2.974	11.2431
2.964	11.198
2.954	11.1609
2.944	11.1111
2.934	11.0798
2.924	11.0671
2.914	11.051
2.904	11.0449
2.895	11.0588
2.885	11.0459
2.875	11.0493
2.866	11.0759
2.856	11.0598
2.847	11.0461
2.838	10.9292
2.828	10.8891
2.819	10.9077
2.81	10.9726
2.801	11.0215
2.792	11.0942
2.783	11.1638
2.774	11.2549
2.765	11.2517
2.756	11.2197
2.747	11.2871
2.739	11.3142
2.73	11.3596
2.721	11.4184
2.713	11.4741
2.704	11.4436
2.696	11.5034
2.687	11.5222
2.679	11.5422
2.671	11.5134
2.663	11.4907
2.654	11.4358
2.646	11.4082
2.638	11.3559
2.63	11.3376
2.622	11.2954
2.614	11.2915
2.606	11.2246
2.599	11.2121
2.591	11.1743
2.583	11.1291
2.575	11.1047
2.568	11.0866
2.56	11.0429
2.553	11.0117
2.545	10.9824
2.538	10.9494
2.53	10.8889
2.523	10.8823
2.515	10.8266
2.508	10.811
2.501	10.7719
2.494	10.7617
2.486	10.7461
2.479	10.7278
2.472	10.6748
2.465	10.643
2.458	10.6084
2.451	10.6172
2.444	10.5747
2.437	10.5586
2.43	10.5459
2.424	10.5224
2.417	10.5224
2.41	10.5302
2.403	10.4912
2.397	10.4443
2.39	10.4199
2.384	10.4223
2.377	10.417
2.37	10.3791
2.364	10.3884
2.358	10.3486
2.351	10.3418
2.345	10.3532
2.338	10.3083
2.332	10.3093
2.326	10.3083
2.32	10.2639
2.313	10.2717
2.307	10.2861
2.301	10.2883
2.295	10.2761
2.289	10.2822
2.283	10.2426
2.277	10.2778
2.271	10.2434
2.265	10.2473
2.259	10.2583
2.253	10.2158
2.247	10.1926
2.241	10.2287
2.236	10.2258
2.23	10.2217
2.224	10.1914
2.218	10.2402
2.213	10.2444
2.207	10.217
2.201	10.2051
2.196	10.2112
2.19	10.2319
2.185	10.1904
2.179	10.2102
2.174	10.2668
2.168	10.258
2.163	10.2749
2.157	10.2549
2.152	10.2304
2.147	10.2539
2.141	10.2082
2.136	10.2287
2.131	10.2407
2.126	10.2258
2.12	10.2739
2.115	10.2785
2.11	10.2932
2.105	10.2607
2.1	10.2903
2.095	10.3135
2.09	10.2834
2.085	10.2961
2.079	10.261
