Name: Black Shale
Type: Rocks
Class: Sedimentary
Subclass: Shale
Particle Size: 500 - 1500 Micrometers
Owner: JHU
Wavelength Range: All
Origin: Sample No. 385,  The Hunt and Salisbury Collection at the U.S.
Description: This is very similar to shale.6, but with more clay in the
Measurement: Directional (10 Degree) Hemispherical Reflectance
X Units: Wavelength (micrometers)
Y Units: Reflectance (percent)
wavelength	value
14.011	1.9806
13.715	2.1572
13.43	2.3242
13.158	2.4342
12.896	2.5649
12.644	2.3732
12.402	1.8808
12.169	2.0497
11.945	2.2711
11.729	2.5813
11.52	3.0024
11.319	2.7991
11.125	3.0074
10.937	2.851
10.756	2.85
10.58	2.9493
10.41	3.2166
10.245	3.3575
10.086	3.4443
9.931	3.5595
9.781	3.7809
9.636	4.0729
9.495	4.2121
9.358	4.716
9.225	4.946
9.095	4.7904
8.969	4.6366
8.847	4.5734
8.727	4.5447
8.612	4.0018
8.499	4.6485
8.389	4.932
8.281	5.7819
8.177	6.9672
8.075	6.8617
7.976	6.8469
7.879	6.5654
7.784	6.6238
7.692	6.871
7.601	6.6753
7.513	6.8004
7.427	6.7157
7.343	6.248
7.261	5.1955
7.18	4.1839
7.102	4.0839
7.025	3.6728
6.949	3.28
6.875	3.1175
6.803	3.1385
6.733	3.3352
6.663	3.7202
6.596	4.2174
6.529	4.6165
6.464	5.1558
6.4	5.1385
6.338	4.0495
6.276	3.1601
6.216	2.6187
6.157	2.3586
6.099	2.3028
6.042	2.2857
5.986	2.3813
5.931	2.4138
5.878	2.5509
5.825	2.7118
5.773	2.7496
5.722	2.8117
5.672	2.8685
5.623	2.7211
5.574	2.0586
5.527	2.6588
5.48	2.9805
5.434	3.1903
5.389	3.0562
5.345	2.8905
5.301	3.0065
5.258	3.2711
5.215	3.6015
5.174	3.7248
5.133	3.7449
5.093	3.7446
5.053	3.7525
5.014	3.7716
4.975	3.9248
4.937	4.1313
4.9	4.3387
4.863	4.537
4.827	4.6241
4.791	4.6864
4.756	4.7265
4.721	4.7211
4.687	4.5763
4.654	4.6248
4.62	4.8177
4.588	4.9206
4.556	4.9759
4.524	5.0084
4.492	5.0158
4.461	5.0811
4.431	5.1541
4.401	5.2343
4.371	5.2964
4.342	5.3196
4.313	5.355
4.284	5.3691
4.256	5.4113
4.229	5.4565
4.201	5.4785
4.174	5.4996
4.147	5.5007
4.121	5.4818
4.095	5.4453
4.069	5.3546
4.044	5.0615
4.019	4.5136
3.994	3.7162
3.97	3.4989
3.945	3.9188
3.921	4.282
3.898	4.4475
3.875	4.53
3.852	4.6469
3.829	4.8464
3.806	5.162
3.784	5.5321
3.762	5.6647
3.74	5.7192
3.719	5.751
3.698	5.7407
3.677	5.714
3.656	5.6833
3.636	5.6403
3.615	5.6008
3.595	5.5005
3.575	5.339
3.556	5.2048
3.536	4.9807
3.517	4.4791
3.498	4.1683
3.479	4.087
3.461	4.2568
3.442	4.2346
3.424	4.0556
3.406	4.1083
3.388	4.131
3.371	4.1686
3.353	4.1985
3.336	4.4588
3.319	4.5406
3.302	4.5617
3.285	4.5949
3.269	4.6047
3.252	4.6462
3.236	4.6772
3.22	4.6603
3.204	4.626
3.188	4.6042
3.173	4.5559
3.157	4.5016
3.142	4.4507
3.127	4.3823
3.112	4.3102
3.097	4.2516
3.082	4.2511
3.067	4.2016
3.053	4.1449
3.039	4.1212
3.025	4.082
3.011	4.0949
2.997	4.1061
2.983	4.1217
2.969	4.1968
2.956	4.1748
2.942	4.2241
2.929	4.2669
2.916	4.2468
2.903	4.3043
2.89	4.3387
2.877	4.3836
2.864	4.4268
2.852	4.4681
2.839	4.4918
2.827	4.4784
2.814	4.3894
2.802	4.3056
2.79	4.16
2.778	3.7497
2.766	3.3965
2.755	3.1814
2.743	3.3616
2.731	3.7308
2.72	4.4966
2.708	5.6572
2.697	6.4815
2.686	6.9654
2.675	7.098
2.664	7.1804
2.653	7.3918
2.642	7.4811
2.632	7.406
2.621	7.4378
2.61	7.4694
2.6	7.5031
2.59	7.5335
2.579	7.5459
2.569	7.6067
2.559	7.6115
2.549	7.6079
2.539	7.6079
2.529	7.6189
2.519	7.706
2.509	7.721
2.5	7.7029
2.49	7.7386
2.481	7.7713
2.471	7.799
2.462	7.8196
2.452	7.8483
2.443	7.8852
2.434	7.8885
2.425	7.9079
2.416	7.9479
2.407	7.9871
2.398	8.039
2.389	8.0254
2.38	8.0515
2.372	8.0329
2.363	8.0266
2.354	8.0146
2.346	8.0354
2.337	8.0825
2.329	8.0565
2.321	8.1443
2.312	8.1338
2.304	8.1496
2.296	8.1883
2.288	8.2286
2.28	8.2192
2.272	8.2419
2.264	8.2436
2.256	8.2688
2.248	8.2945
2.24	8.2685
2.233	8.2864
2.225	8.262
2.217	8.2591
2.21	8.2673
2.202	8.2467
2.195	8.3036
2.187	8.3695
2.18	8.3632
2.173	8.4094
2.166	8.4738
2.158	8.3941
2.151	8.5245
2.144	8.4721
2.137	8.4647
2.13	8.4912
2.123	8.4955
2.116	8.5018
2.109	8.5486
2.102	8.5025
2.095	8.537
2.089	8.6042
2.082	8.5697
2.06	8.6504
2.028	8.6619
1.996	8.7087
1.964	8.7539
1.932	8.6856
1.9	8.7634
1.868	8.9593
1.836	9.1109
1.804	9.1473
1.772	9.1033
1.74	9.1242
1.708	9.2297
1.676	9.2657
1.644	9.2916
1.612	9.3645
1.58	9.3728
1.548	9.3404
1.516	9.3991
1.484	9.3864
1.452	9.412
1.42	9.2563
1.388	9.4976
1.356	9.4518
1.324	9.4239
1.292	9.5476
1.26	9.4939
1.228	9.4426
1.196	9.3835
1.164	9.3324
1.132	9.3215
1.1	9.2557
1.068	9.1572
1.036	9.2092
1.004	9.1328
0.972	9.1327
0.94	9.0397
0.908	8.9469
0.876	9.0896
0.844	8.9493
0.812	8.6964
0.795	8.9307
0.787	8.9855
0.779	8.7892
0.771	8.8688
0.763	8.7991
0.755	8.7934
0.747	8.7106
0.739	8.8972
0.731	8.5396
0.723	8.6445
0.715	8.6914
0.707	8.5456
0.699	8.5356
0.691	8.4352
0.683	8.408
0.675	8.3447
0.667	8.3504
0.659	8.2187
0.651	8.0881
0.643	8.1536
0.635	7.9379
0.627	8.0004
0.619	7.9208
0.611	7.8196
0.603	7.7535
0.595	7.5941
0.587	7.5768
0.579	7.5616
0.571	7.4417
0.563	7.3677
0.555	7.1823
0.547	7.1008
0.539	6.9877
0.531	6.779
0.523	6.7769
0.515	6.6816
0.507	6.5818
0.499	6.2659
0.491	6.28
0.483	6.036
0.475	6.047
0.467	5.8076
0.459	5.6607
0.451	5.4051
0.443	5.2912
0.435	4.8729
0.427	4.9069
0.419	4.4976
0.411	4.4811
0.403	4.3251
