Name: Anhydrite CaSO4
Type: Mineral
Class: Sulfates
Particle Size: Fine (less than 2 Micrometers)
Sample No.: anhydrite.1
Owner: JHU
Wavelength Range: IR
Origin: Sample from Champo, Isere, France, via the Smithsonian
Description: The sample was a 3 cm x 3 cm x 4 cm, white, granular
Measurement: Transmission
X Units: Wavelength (micrometers)
Y Units: Transmittance (percent)
wavelength	value
25.0442	93.2966
24.3388	92.5662
23.6719	92.2263
23.0407	93.1013
22.4422	92.0642
21.8741	91.4177
21.334	91.8142
20.8199	92.5115
20.33	92.8123
19.8627	92.5193
19.4163	92.114
18.9896	92.6414
18.5812	92.8279
18.19	92.7439
17.815	92.7312
17.4551	92.3015
17.1094	90.6892
16.7772	43.4315
16.4576	72.619
16.15	64.3602
15.8537	90.7781
15.568	91.9861
15.2925	90.9802
15.0265	82.4422
14.7697	35.33
14.5214	81.8084
14.2814	93.5613
14.0492	93.7048
13.8244	94.3186
13.6067	94.8904
13.3957	95.0706
13.1912	95.7283
12.9929	95.6643
12.8004	96.2556
12.6135	96.4514
12.432	96.7385
12.2557	97.0134
12.0843	96.9924
11.9176	96.9509
11.7555	96.6916
11.5977	96.698
11.444	96.1643
11.2944	96.1169
11.1487	96.0007
11.0067	95.9636
10.8682	95.9509
10.7332	95.8601
10.6015	95.6101
10.473	94.5974
10.3476	93.7449
10.2251	92.1975
10.1056	90.3103
9.98873	87.8836
9.87458	85.0882
9.763	85.2654
9.65392	83.8069
9.54724	82.1126
9.44291	79.6018
9.34082	74.2386
9.24091	62.4901
9.14312	44.747
9.04739	22.4887
8.95363	12.6836
8.8618	13.2114
8.77183	14.3637
8.68368	8.6352
8.59727	6.9394
8.51257	11.5996
8.42951	18.4941
8.34807	32.3781
8.26819	51.964
8.18981	67.1524
8.11292	79.157
8.03745	84.8838
7.96337	87.9729
7.89064	90.1931
7.81924	91.0645
7.74911	91.8291
7.68023	93.113
7.61256	93.9365
7.54608	94.4949
7.48074	94.9216
7.41653	95.4167
7.35341	95.6458
7.29136	95.8477
7.23034	96.5889
7.17033	95.9851
7.11132	96.1443
7.05327	96.4102
6.99616	96.679
6.93996	96.905
6.88467	97.0085
6.83024	96.9285
6.77667	97.166
6.72393	97.4512
6.67201	97.6418
6.62089	97.7175
6.57054	97.6533
6.52095	97.5759
6.4721	97.3984
6.42398	97.3581
6.37657	97.2598
6.32986	96.9609
6.28382	96.4734
6.23845	95.8625
6.19373	94.7595
6.14965	93.8728
6.10619	94.1201
6.06334	94.5742
6.02109	95.3623
5.97942	96.1277
5.93832	96.7373
5.89778	97.3799
5.8578	97.8008
5.81835	98.0251
5.77943	98.123
5.74103	98.2822
5.70314	98.4463
5.66574	98.6269
5.62883	98.6934
5.5924	98.7302
5.55644	98.7383
5.52093	98.7043
5.48588	98.7424
5.45127	98.8157
5.41709	98.8435
5.38334	98.8083
5.35	98.8425
5.31708	98.9363
5.28456	98.904
5.25243	98.9353
5.2207	98.8955
5.18934	98.8972
5.15836	98.9912
5.12775	98.9443
5.09749	98.9763
5.0676	98.8767
5.03805	98.906
5.00884	98.9187
4.97998	98.8884
4.95144	98.9636
4.92322	98.7932
4.89533	98.8777
4.86775	98.8581
4.84048	98.9333
4.81351	98.8113
4.78684	98.821
4.76047	98.74
4.73439	98.4763
4.70859	97.5588
4.68306	96.8977
4.65782	97.1843
4.63284	97.8513
4.60814	98.1716
4.58369	98.4358
4.5595	98.5002
4.53557	98.404
4.51188	98.3122
4.48845	98.2092
4.46525	98.1614
4.44229	98.2366
4.41957	98.4607
4.39708	98.6174
4.37481	98.5979
4.35277	98.6384
4.33096	98.7131
4.30935	98.7678
4.28797	98.8015
4.26679	98.8806
4.24583	99.0373
4.22506	99.1912
4.2045	99.1023
4.18414	99.1081
4.16398	99.219
4.14401	99.2283
4.12423	99.3181
4.10464	99.3381
4.08523	99.2976
4.066	99.24
4.04696	99.1951
4.02809	99.3367
4.0094	99.2156
3.99088	99.1721
3.97253	99.1077
3.95435	99.2327
3.93634	99.2204
3.91848	99.1775
3.90079	99.3264
3.88326	99.2639
3.86589	99.2244
3.84867	99.1912
3.8316	99.2322
3.81468	99.282
3.79791	99.1833
3.78129	99.2019
3.76482	99.197
3.74848	99.1824
3.73229	99.1179
3.71624	99.0881
3.70032	99.0613
3.68454	99.1643
3.6689	99.0417
3.65338	99.0535
3.638	99.0823
3.62275	98.9924
3.60762	98.9665
3.59262	98.9822
3.57775	98.9089
3.56299	98.8972
3.54836	98.9241
3.53385	98.8308
3.51945	98.6467
3.50517	98.176
3.49101	98.5525
3.47696	98.5212
3.46303	98.4202
3.4492	98.24
3.43549	98.033
3.42188	97.6155
3.40838	97.8249
3.39499	98.0212
3.38171	97.9499
3.36852	98.1018
3.35544	98.0007
3.34246	97.9763
3.32958	97.9548
3.3168	97.824
3.30411	97.7205
3.29153	97.6228
3.27903	97.4607
3.26664	97.2263
3.25433	97.0085
3.24212	96.8376
3.23	96.6462
3.21797	96.4456
3.20603	96.1423
3.19418	95.8225
3.18241	95.6506
3.17074	95.325
3.15914	94.9861
3.14763	94.7419
3.13621	94.2986
3.12487	93.9744
3.11361	93.6462
3.10243	93.3132
3.09133	92.9978
3.0803	92.6648
3.06936	92.3572
3.0585	92.074
3.04771	91.8181
3.037	91.5095
3.02636	91.0955
3.0158	90.4832
3.00531	89.9646
2.99489	89.4041
2.98454	88.8533
2.97427	88.2283
2.96407	87.6677
2.95393	87.2439
2.94387	86.8533
2.93387	86.5779
2.92394	86.325
2.91408	86.1521
2.90429	86.2947
2.89456	86.5213
2.88489	86.8533
2.87529	87.0799
2.86576	87.5115
2.85628	88.1336
2.84687	88.6795
2.83752	89.1638
2.82823	89.533
2.81901	90.0935
2.80984	90.6228
2.80073	91.4236
2.79168	92.4138
2.78269	92.9314
2.77376	93.5789
2.76488	94.3142
2.75606	95.1873
2.7473	96.3162
2.73859	97.1609
2.72994	97.6677
2.72134	98.1931
2.7128	98.2341
2.70431	98.279
2.69587	98.5505
2.68748	98.6443
2.67915	98.6267
2.67087	98.6374
2.66264	98.6716
2.65446	98.6755
2.64633	98.7429
2.63825	98.6716
2.63021	98.7078
2.62223	98.6023
2.6143	98.7185
2.60641	98.7859
2.59857	98.8162
2.59078	98.9421
2.58304	98.7283
2.57534	98.7849
2.56768	98.8015
2.56008	98.6257
2.55251	98.6413
2.54499	98.5593
2.53752	98.8005
2.53009	98.7497
2.5227	98.5486
2.51536	98.6326
2.50806	98.781
2.5008	98.7478
2.49358	98.8044
2.4864	98.6091
2.47927	98.654
2.47218	98.8318
2.46512	98.7361
2.45811	98.8455
2.45114	98.7576
2.4442	98.7693
2.43731	98.6892
2.43045	98.6423
2.42363	98.5857
2.41685	98.8259
2.41011	98.8318
2.40341	98.8767
2.39674	98.6345
2.39011	98.6833
2.38352	98.8552
2.37696	98.7458
2.37044	98.8611
2.36395	98.6287
2.35751	98.7205
2.35109	98.9802
2.34471	98.6716
2.33836	98.5232
2.33205	98.5798
2.32578	98.4568
2.31953	98.6111
2.31332	98.656
2.30714	98.6267
2.301	98.5896
2.29489	98.7771
2.28881	98.8064
2.28276	98.6052
2.27675	98.4861
2.27076	98.8044
2.26481	98.4958
2.25889	98.6033
2.253	98.6872
2.24714	98.6814
2.24131	98.8279
2.23551	98.6267
2.22974	98.7185
2.224	98.656
2.21829	98.6091
2.21261	98.5544
2.20696	98.7126
2.20134	98.3357
2.19574	98.5701
2.19018	98.5622
2.18464	98.5818
2.17913	98.283
2.17365	98.5466
2.16819	98.7068
2.16277	98.6267
2.15737	98.531
2.15199	98.5622
2.14665	98.3533
2.14133	98.4841
2.13603	98.3591
2.13077	98.5662
2.12552	98.7068
2.12031	98.4333
2.11512	98.449
2.10995	98.4802
2.10481	98.3708
2.0997	98.613
2.09461	98.7966
2.08954	98.7107
2.0845	98.5076
2.07948	98.5505
