Name: Basalt
Type: Rocks
Class: Igneous
Subclass: Mafic
Particle Size: Solid
Sample No.: Basalt.H1
Owner: JHU
Origin: from Chimney Rock, Somerset County, New Jersey, via Ward's
Description: A greenish-black aphanitic rock.
Measurement: Directional (10 degree) hemispherical reflectance
X Units: Wavelength (micrometers)
Y Units: Reflectance (percent)
wavelength	value
14.011	3.5616
13.715	2.0958
13.43	2.4736
13.158	3.019
12.896	3.2941
12.644	3.3084
12.402	3.6049
12.169	4.2891
11.945	4.9193
11.729	5.9051
11.52	6.9387
11.319	7.9212
11.125	8.6086
10.937	9.356
10.756	10.0296
10.58	10.2468
10.41	10.372
10.245	10.0547
10.086	10.4069
9.931	10.755
9.781	10.6197
9.636	10.2374
9.495	9.8093
9.358	9.8514
9.225	9.8885
9.095	9.7769
8.969	8.8833
8.847	7.1934
8.727	5.7574
8.612	5.0154
8.499	4.5511
8.389	3.9056
8.281	2.9238
8.177	1.9282
8.075	1.4735
7.976	1.2876
7.879	1.2206
7.784	1.1998
7.692	1.2535
7.601	1.3547
7.513	1.3739
7.427	1.4557
7.343	1.4974
7.261	1.5896
7.18	1.6268
7.102	1.6793
7.025	1.739
6.949	1.7867
6.875	1.8314
6.803	1.9083
6.733	1.9378
6.663	1.9763
6.596	1.9821
6.529	1.9903
6.464	1.991
6.4	1.9814
6.338	1.9884
6.276	2.0194
6.216	2.0025
6.157	1.9932
6.099	2.0179
6.042	2.0405
5.986	2.081
5.931	2.1213
5.878	2.1942
5.825	2.2882
5.773	2.3735
5.722	2.3826
5.672	2.4345
5.623	2.4947
5.574	2.5116
5.527	2.5509
5.48	2.5763
5.434	2.5992
5.389	2.6044
5.345	2.6194
5.301	2.6369
5.258	2.6494
5.215	2.692
5.174	2.7347
5.133	2.7497
5.093	2.7844
5.053	2.8212
5.014	2.8525
4.975	2.9075
4.937	2.9177
4.9	2.967
4.863	3.0039
4.827	3.0296
4.791	3.075
4.756	3.0799
4.721	3.116
4.687	3.161
4.654	3.1997
4.62	3.2078
4.588	3.251
4.556	3.2834
4.524	3.3185
4.492	3.353
4.461	3.3394
4.431	3.3849
4.401	3.3834
4.371	3.3942
4.342	3.3876
4.313	3.4226
4.284	3.4594
4.256	3.4514
4.229	3.4842
4.201	3.494
4.174	3.4966
4.147	3.5158
4.121	3.5245
4.095	3.5156
4.069	3.5569
4.044	3.5519
4.019	3.5725
3.994	3.5296
3.97	3.5805
3.945	3.5538
3.921	3.559
3.898	3.5756
3.875	3.5946
3.852	3.596
3.829	3.6047
3.806	3.6094
3.784	3.5883
3.762	3.5843
3.74	3.5489
3.719	3.57
3.698	3.5857
3.677	3.5346
3.656	3.5688
3.636	3.5728
3.615	3.5595
3.595	3.5163
3.575	3.5325
3.556	3.5135
3.536	3.4877
3.517	3.4507
3.498	3.4078
3.479	3.4034
3.461	3.4125
3.442	3.4236
3.424	3.326
3.406	3.3206
3.388	3.319
3.371	3.3054
3.353	3.353
3.336	3.2935
3.319	3.3187
3.302	3.2599
3.285	3.281
3.269	3.2784
3.252	3.2553
3.236	3.2238
3.22	3.1696
3.204	3.1685
3.188	3.1212
3.173	3.1043
3.157	3.1036
3.142	3.0668
3.127	3.0351
3.112	2.9892
3.097	3.0068
3.082	2.9662
3.067	2.9817
3.053	2.9271
3.039	2.9421
3.025	2.9192
3.011	2.9341
2.997	2.9187
2.983	2.8919
2.969	2.9264
2.956	2.8575
2.942	2.9006
2.929	2.9182
2.916	2.8999
2.903	2.9444
2.89	2.921
2.877	2.9145
2.864	2.9112
2.852	2.8865
2.839	2.9055
2.827	2.9117
2.814	2.94
2.802	2.9348
2.79	2.902
2.778	2.9098
2.766	2.907
2.755	2.9482
2.743	2.9995
2.731	3.0457
2.72	3.128
2.708	3.3968
2.697	3.5688
2.686	3.6216
2.675	3.7101
2.664	3.6675
2.653	3.6841
2.642	3.6717
2.632	3.7143
2.621	3.6706
2.61	3.6633
2.6	3.7008
2.59	3.6304
2.579	3.6569
2.569	3.6408
2.559	3.5782
2.549	3.6091
2.539	3.5463
2.529	3.5725
2.519	3.5304
2.509	3.554
2.5	3.5821
2.49	3.5055
2.481	3.5114
2.471	3.51
2.462	3.5367
2.452	3.5147
2.443	3.4826
2.434	3.4525
2.425	3.4545
2.416	3.494
2.407	3.4922
2.398	3.5166
2.389	3.4231
2.38	3.4631
2.372	3.4549
2.363	3.5121
2.354	3.3813
2.346	3.4945
2.337	3.4382
2.329	3.4399
2.321	3.4624
2.312	3.465
2.304	3.4226
2.296	3.3977
2.288	3.4148
2.28	3.4336
2.272	3.3949
2.264	3.4915
2.256	3.4408
2.248	3.4385
2.24	3.4805
2.233	3.4781
2.225	3.4812
2.217	3.4784
2.21	3.439
2.202	3.5088
2.195	3.5172
2.187	3.5114
2.18	3.4903
2.173	3.5135
2.166	3.5815
2.158	3.514
2.151	3.4836
2.144	3.5522
2.137	3.5353
2.13	3.5616
2.123	3.6169
2.116	3.5771
2.109	3.5909
2.102	3.6445
2.095	3.601
2.089	3.6143
2.082	3.5963
2.06	3.6711
2.028	3.7019
1.996	3.7267
1.964	3.7377
1.932	3.7823
1.9	3.8459
1.868	3.9095
1.836	3.9361
1.804	3.986
1.772	3.9373
1.74	3.9896
1.708	4.0086
1.676	4.0739
1.644	4.0487
1.612	4.0632
1.58	4.1185
1.548	4.127
1.516	4.1307
1.484	4.1515
1.452	4.1424
1.42	4.0625
1.388	4.1036
1.356	4.0486
1.324	4.2786
1.292	4.1898
1.26	4.1577
1.228	4.1496
1.196	4.0482
1.164	4.0329
1.132	3.9164
1.1	3.8252
1.068	3.8272
1.036	3.733
1.004	3.625
0.972	3.5991
0.94	3.7848
0.908	4.0022
0.876	4.1859
0.844	4.4377
0.812	4.5575
0.795	4.5885
0.787	4.6858
0.779	4.3095
0.771	4.6872
0.763	4.5666
0.755	4.4782
0.747	4.5567
0.739	4.6191
0.731	4.6056
0.723	4.6799
0.715	4.4805
0.707	4.3713
0.699	4.4357
0.691	4.4092
0.683	4.5639
0.675	4.3972
0.667	4.3683
0.659	4.3119
0.651	4.4336
0.643	4.2549
0.635	4.3476
0.627	4.4185
0.619	4.4036
0.611	4.354
0.603	4.2663
0.595	4.2592
0.587	4.1433
0.579	4.2747
0.571	4.3711
0.563	4.34
0.555	4.1019
0.547	4.2991
0.539	4.1784
0.531	4.2641
0.523	4.2912
0.515	4.2377
0.507	4.3935
0.499	4.2632
0.491	3.8794
0.483	3.7645
0.475	4.1181
0.467	4.2877
0.459	4.1419
0.451	4.2254
0.443	3.8615
0.435	3.3547
0.427	3.3836
0.419	3.6009
0.411	3.4366
0.403	2.9721
