Name: Acmite NaFe+3Si2O6
Type: Mineral
Class: Silicates
Subclass: Inosilicates (Pyroxene Group - single chain)
Particle Size: Fine (less than 75 Micrometers)
Owner: JHU
Wavelength Range: IR
Origin: Sample from Kangerdluarssuk, near Narssaq, Greenland via
Description: The sample consisted of large (up to 2 cm long and
Measurement: Bidirectional reflectance
X Units: Wavelength (micrometers)
Y Units: Reflectance (percent)
wavelength	value
25.044	1.1243
24.339	1.1978
23.672	1.4546
23.041	1.6611
22.442	1.7373
21.874	1.8411
21.334	1.8152
20.82	1.7717
20.33	1.8935
19.863	1.9373
19.416	1.7144
18.99	1.6318
18.581	1.47
18.19	1.428
17.815	1.4778
17.455	1.4336
17.109	1.3667
16.777	1.1243
16.458	1.0442
16.15	1.1516
15.854	1.0527
15.568	0.9602
15.292	0.9561
15.027	1.3584
14.77	1.7397
14.521	2.0019
14.281	2.1152
14.049	2.0281
13.824	1.8459
13.607	1.7534
13.396	2.4358
13.191	2.9404
12.993	3.1106
12.8	3.0044
12.614	2.8533
12.432	2.5762
12.256	2.2891
12.084	1.9348
11.918	1.6689
11.755	1.4001
11.598	1.2339
11.444	1.1885
11.294	1.1372
11.149	1.1189
11.007	1.1553
10.868	1.1885
10.733	1.2852
10.602	1.4478
10.473	1.5037
10.348	1.5232
10.225	1.584
10.106	1.6667
9.989	1.7485
9.875	1.7295
9.763	1.6794
9.654	1.7197
9.547	1.8467
9.443	1.9629
9.341	1.9702
9.241	1.8975
9.143	1.8345
9.047	1.7327
8.954	1.6953
8.862	1.9106
8.772	2.3384
8.684	2.6448
8.597	2.1936
8.513	1.6792
8.43	1.3191
8.348	1.2568
8.268	1.4153
8.19	1.7141
8.113	2.0791
8.037	2.408
7.963	2.6736
7.891	2.938
7.819	3.2048
7.749	3.4492
7.68	3.6323
7.613	3.8013
7.546	3.9123
7.481	3.9817
7.417	4.1313
7.353	4.3638
7.291	4.5991
7.23	4.8142
7.17	5.0046
7.111	5.136
7.053	5.2019
6.996	5.3308
6.94	5.4497
6.885	5.488
6.83	5.5303
6.777	5.6243
6.724	5.7558
6.672	5.8518
6.621	5.956
6.571	6.0842
6.521	6.147
6.472	6.0652
6.424	5.8525
6.377	5.6579
6.33	5.5156
6.284	5.3901
6.238	5.2483
6.194	5.2939
6.15	5.5527
6.106	5.8056
6.063	5.8406
6.021	5.7595
5.979	5.5986
5.938	5.3945
5.898	5.3503
5.858	5.4631
5.818	5.332
5.779	5.2187
5.741	5.2878
5.703	5.3918
5.666	5.4475
5.629	5.6216
5.592	6.093
5.556	6.7158
5.521	7.1809
5.486	7.2602
5.451	7.2041
5.417	7.155
5.383	7.1184
5.35	7.0615
5.317	7.0027
5.285	6.9634
5.252	6.9053
5.221	6.874
5.189	7.0112
5.158	7.2412
5.128	7.4189
5.097	7.6465
5.068	7.8757
5.038	8.0437
5.009	8.1875
4.98	8.355
4.951	8.4851
4.923	8.6074
4.895	8.7615
4.868	8.9306
4.84	9.0456
4.814	9.145
4.787	9.2698
4.76	9.3999
4.734	9.5576
4.709	9.7678
4.683	10.1238
4.658	10.5154
4.633	10.8916
4.608	11.2444
4.584	11.518
4.56	11.7085
4.536	11.855
4.512	11.946
4.488	12.011
4.465	12.0759
4.442	12.1213
4.42	12.1811
4.397	12.2102
4.375	12.2348
4.353	12.2436
4.331	12.2683
4.309	12.2715
4.288	12.2937
4.267	12.3227
4.246	12.3606
4.225	12.3925
4.205	12.4233
4.184	12.4436
4.164	12.4502
4.144	12.4636
4.124	12.4895
4.105	12.521
4.085	12.5478
4.066	12.602
4.047	12.6272
4.028	12.6609
4.009	12.6684
3.991	12.6606
3.973	12.6723
3.954	12.6941
3.936	12.7199
3.918	12.7339
3.901	12.7346
3.883	12.7282
3.866	12.717
3.849	12.7021
3.832	12.6894
3.815	12.6748
3.798	12.6782
3.781	12.6804
3.765	12.6762
3.748	12.6809
3.732	12.6833
3.716	12.6533
3.7	12.6433
3.685	12.6284
3.669	12.6169
3.653	12.615
3.638	12.6194
3.623	12.6018
3.608	12.5971
3.593	12.5791
3.578	12.5373
3.563	12.5044
3.548	12.4697
3.534	12.4072
3.519	12.2988
3.505	12.0818
3.491	12.1242
3.477	12.136
3.463	12.1425
3.449	12.0556
3.435	11.9426
3.422	11.7324
3.408	11.6958
3.395	11.8332
3.382	11.8447
3.369	11.873
3.355	11.9563
3.342	11.9926
3.33	11.987
3.317	11.958
3.304	11.9138
3.292	11.8911
3.279	11.8403
3.267	11.7905
3.254	11.7307
3.242	11.6982
3.23	11.6369
3.218	11.5813
3.206	11.5307
3.194	11.4553
3.182	11.3803
3.171	11.3076
3.159	11.2429
3.148	11.1726
3.136	11.0942
3.125	11.0229
3.114	10.9738
3.102	10.8989
3.091	10.8335
3.08	10.7749
3.069	10.7195
3.058	10.654
3.048	10.6045
3.037	10.5383
3.026	10.4465
3.016	10.354
3.005	10.2795
2.995	10.2343
2.985	10.1872
2.974	10.1296
2.964	10.0691
2.954	10.0215
2.944	9.9843
2.934	9.9497
2.924	9.9262
2.914	9.9231
2.904	9.9177
2.895	9.8999
2.885	9.8703
2.875	9.8198
2.866	9.7978
2.856	9.7502
2.847	9.667
2.838	9.5827
2.828	9.4673
2.819	9.456
2.81	9.4746
2.801	9.542
2.792	9.6301
2.783	9.7068
2.774	9.7385
2.765	9.5857
2.756	9.3869
2.747	9.7182
2.739	9.9304
2.73	9.966
2.721	9.8523
2.713	9.7671
2.704	9.7016
2.696	10.8122
2.687	11.7036
2.679	11.9929
2.671	12.124
2.663	12.2299
2.654	12.2536
2.646	12.2339
2.638	12.2382
2.63	12.2168
2.622	12.1899
2.614	12.177
2.606	12.1401
2.599	12.1081
2.591	12.0935
2.583	12.0683
2.575	12.0207
2.568	11.9712
2.56	11.9301
2.553	11.8855
2.545	11.8642
2.538	11.842
2.53	11.7949
2.523	11.7287
2.515	11.7133
2.508	11.6806
2.501	11.6587
2.494	11.6111
2.486	11.573
2.479	11.5634
2.472	11.5031
2.465	11.4651
2.458	11.4223
2.451	11.3838
2.444	11.3388
2.437	11.3042
2.43	11.2734
2.424	11.2439
2.417	11.216
2.41	11.1765
2.403	11.1279
2.397	11.0967
2.39	11.0481
2.384	10.9948
2.377	10.9824
2.37	10.9331
2.364	10.9062
2.358	10.8681
2.351	10.8408
2.345	10.7937
2.338	10.7475
2.332	10.7031
2.326	10.6677
2.32	10.6369
2.313	10.5981
2.307	10.541
2.301	10.5351
2.295	10.4824
2.289	10.4765
2.283	10.4489
2.277	10.3877
2.271	10.3437
2.265	10.2988
2.259	10.2505
2.253	10.2051
2.247	10.1938
2.241	10.1518
2.236	10.1357
2.23	10.1303
2.224	10.0361
2.218	10.0061
2.213	9.9397
2.207	9.9236
2.201	9.9333
2.196	9.8642
2.19	9.8178
2.185	9.7854
2.179	9.7431
2.174	9.7759
2.168	9.7219
2.163	9.654
2.157	9.5959
2.152	9.5393
2.147	9.5342
2.141	9.5056
2.136	9.4472
2.131	9.3984
2.126	9.3589
2.12	9.3388
2.115	9.2676
2.11	9.2441
2.105	9.2431
2.1	9.1899
2.095	9.1692
2.09	9.1662
2.085	9.1064
2.079	9.0327
