Name: Bholghati
Type: Stony Meteorites
Class: Achondrite
Subclass: Howardite
Particle Size: 0-75 micrometers
Sample No.: Bholghati
Owner: JHU
Origin: Meteorite seen to fall in India in 1905.  Smithsonian sample No. USNM
Description: None.
Measurement: Bidirectional reflectance
X Units: Wavelength (micrometers)
Y Units: Reflectance (percent)
wavelength	value
25.044	0.6108
24.339	0.7297
23.672	0.7607
23.041	0.7927
22.442	0.8655
21.874	0.8464
21.334	0.8623
20.82	0.968
20.33	1.0723
19.863	1.1208
19.416	1.0525
18.99	0.835
18.581	0.845
18.19	0.7852
17.815	0.769
17.455	0.7686
17.109	0.7466
16.777	0.7437
16.458	0.6287
16.15	0.5503
15.854	0.4758
15.568	0.4368
15.292	0.4302
15.027	0.4744
14.77	0.46
14.521	0.5894
14.281	0.75
14.049	0.8723
13.824	0.7368
13.607	0.728
13.396	0.9219
13.191	1.0754
12.993	1.26
12.8	1.3682
12.614	1.4988
12.432	1.5747
12.256	1.5281
12.084	1.3115
11.918	1.1143
11.755	1.0088
11.598	0.9368
11.444	0.9419
11.294	0.9011
11.149	0.7927
11.007	0.7056
10.868	0.7468
10.733	0.8027
10.602	0.8093
10.473	0.8003
10.348	0.7791
10.225	0.751
10.106	0.7036
9.9887	0.6567
9.8746	0.6606
9.763	0.7014
9.6539	0.752
9.5472	0.8005
9.4429	0.824
9.3408	0.8345
9.2409	0.8403
9.1431	0.8484
9.0474	0.8386
8.9536	0.7449
8.8618	0.6367
8.7718	0.5371
8.6837	0.447
8.5973	0.4072
8.5126	0.4128
8.4295	0.4583
8.3481	0.5417
8.2682	0.6628
8.1898	0.8381
8.1129	1.0474
8.0374	1.2908
7.9634	1.5518
7.8906	1.8118
7.8192	2.0476
7.7491	2.2732
7.6802	2.4587
7.6126	2.5998
7.5461	2.7515
7.4807	2.907
7.4165	3.0247
7.3534	3.137
7.2914	3.2322
7.2303	3.2981
7.1703	3.3281
7.1113	3.3552
7.0533	3.3821
6.9962	3.4407
6.94	3.5181
6.8847	3.6042
6.8302	3.708
6.7767	3.8359
6.7239	3.9038
6.672	3.904
6.6209	3.8686
6.5705	3.8391
6.5209	3.8159
6.4721	3.738
6.424	3.6194
6.3766	3.4829
6.3299	3.3469
6.2838	3.3008
6.2385	3.2993
6.1937	3.3293
6.1496	3.4311
6.1062	3.5654
6.0633	3.6748
6.0211	3.7788
5.9794	3.9038
5.9383	4.1079
5.8978	4.3386
5.8578	4.5176
5.8184	4.6099
5.7794	4.6833
5.741	4.7485
5.7031	4.7995
5.6657	4.8298
5.6288	4.8786
5.5924	4.9548
5.5564	5.0478
5.5209	5.0874
5.4859	5.0676
5.4513	5.0266
5.4171	5.0044
5.3833	5.0073
5.35	4.9929
5.3171	4.9311
5.2846	4.8523
5.2524	4.8059
5.2207	4.7781
5.1893	4.7656
5.1584	4.8054
5.1277	4.8782
5.0975	4.958
5.0676	5.0393
5.038	5.1079
5.0088	5.1565
4.98	5.2075
4.9514	5.2637
4.9232	5.3181
4.8953	5.3603
4.8678	5.4136
4.8405	5.4719
4.8135	5.5473
4.7868	5.6079
4.7605	5.6604
4.7344	5.7202
4.7086	5.7754
4.6831	5.833
4.6578	5.8906
4.6328	5.9438
4.6081	5.9883
4.5837	6.0156
4.5595	6.0395
4.5356	6.0481
4.5119	6.0598
4.4884	6.0652
4.4652	6.0613
4.4423	6.0688
4.4196	6.0713
4.3971	6.0652
4.3748	6.0637
4.3528	6.0649
4.331	6.0649
4.3094	6.062
4.288	6.0644
4.2668	6.0661
4.2458	6.0713
4.2251	6.0818
4.2045	6.0818
4.1841	6.0854
4.164	6.0852
4.144	6.0835
4.1242	6.0859
4.1046	6.0886
4.0852	6.0891
4.066	6.0913
4.047	6.0935
4.0281	6.0945
4.0094	6.0884
3.9909	6.091
3.9725	6.0803
3.9544	6.0769
3.9363	6.0744
3.9185	6.0679
3.9008	6.0618
3.8833	6.0566
3.8659	6.0517
3.8487	6.0459
3.8316	6.0351
3.8147	6.0217
3.7979	6.0149
3.7813	6.0085
3.7648	5.9971
3.7485	5.9819
3.7323	5.9678
3.7162	5.9543
3.7003	5.9346
3.6845	5.9231
3.6689	5.9084
3.6534	5.9016
3.638	5.8818
3.6227	5.8664
3.6076	5.8559
3.5926	5.8371
3.5777	5.8122
3.563	5.7905
3.5484	5.7612
3.5338	5.7263
3.5195	5.6667
3.5052	5.5242
3.491	5.5383
3.477	5.5688
3.463	5.5549
3.4492	5.4983
3.4355	5.4187
3.4219	5.2593
3.4084	5.2776
3.395	5.3811
3.3817	5.3872
3.3685	5.4067
3.3554	5.4509
3.3425	5.4582
3.3296	5.4538
3.3168	5.4299
3.3041	5.414
3.2915	5.3938
3.279	5.3728
3.2666	5.3567
3.2543	5.3257
3.2421	5.303
3.23	5.2766
3.218	5.2544
3.206	5.2297
3.1942	5.1994
3.1824	5.176
3.1707	5.1531
3.1591	5.1265
3.1476	5.1152
3.1362	5.0876
3.1249	5.0681
3.1136	5.0491
3.1024	5.0288
3.0913	5.0105
3.0803	4.9914
3.0694	4.9795
3.0585	4.9653
3.0477	4.9477
3.037	4.9319
3.0264	4.9177
3.0158	4.905
3.0053	4.8852
2.9949	4.8703
2.9845	4.8516
2.9743	4.8408
2.9641	4.8291
2.9539	4.821
2.9439	4.812
2.9339	4.812
2.9239	4.8091
2.9141	4.8108
2.9043	4.8232
2.8946	4.8254
2.8849	4.8454
2.8753	4.8489
2.8658	4.8557
2.8563	4.8662
2.8469	4.8948
2.8375	4.9082
2.8282	4.9184
2.819	4.9531
2.8098	4.9756
2.8007	5.009
2.7917	5.0549
2.7827	5.0908
2.7738	5.1416
2.7649	5.2002
2.7561	5.2671
2.7473	5.3364
2.7386	5.3974
2.7299	5.4565
2.7213	5.4983
2.7128	5.5498
2.7043	5.5886
2.6959	5.6162
2.6875	5.6225
2.6791	5.6296
2.6709	5.6177
2.6626	5.6189
2.6545	5.6186
2.6463	5.6084
2.6382	5.6047
2.6302	5.5771
2.6222	5.5664
2.6143	5.5588
2.6064	5.5371
2.5986	5.539
2.5908	5.5195
2.583	5.5036
2.5753	5.479
2.5677	5.4665
2.5601	5.4619
2.5525	5.4534
2.545	5.437
2.5375	5.4099
2.5301	5.3931
2.5227	5.3804
2.5154	5.375
2.5081	5.3537
2.5008	5.3254
2.4936	5.3191
2.4864	5.2942
2.4793	5.2898
2.4722	5.2656
2.4651	5.2507
2.4581	5.2388
2.4511	5.2078
2.4442	5.1948
2.4373	5.1792
2.4305	5.1601
2.4236	5.1301
2.4169	5.1218
2.4101	5.1172
2.4034	5.0818
2.3967	5.0735
2.3901	5.0637
2.3835	5.0366
2.377	5.04
2.3704	5.0015
2.364	4.9817
2.3575	4.9614
2.3511	4.9636
2.3447	4.9202
2.3384	4.887
2.3321	4.894
2.3258	4.8789
2.3195	4.862
2.3133	4.8486
2.3071	4.8144
2.301	4.823
2.2949	4.8057
2.2888	4.8013
2.2828	4.7676
2.2767	4.7558
2.2708	4.7475
2.2648	4.7305
2.2589	4.7182
2.253	4.6846
2.2471	4.6958
2.2413	4.6855
2.2355	4.6626
2.2297	4.6345
2.224	4.6394
2.2183	4.6018
2.2126	4.5994
2.207	4.6169
2.2013	4.583
2.1957	4.5315
2.1902	4.5442
2.1846	4.551
2.1791	4.5249
2.1736	4.5237
2.1682	4.5188
2.1628	4.4805
2.1574	4.467
2.152	4.4668
2.1466	4.459
2.1413	4.3916
2.136	4.4248
2.1308	4.4263
2.1255	4.4087
2.1203	4.4092
2.1151	4.3787
2.11	4.3982
2.1048	4.3806
2.0997	4.3896
2.0946	4.3884
2.0895	4.3608
2.0845	4.3376
2.0795	4.342
