Name: Goethite a-Fe+3O(OH)
Type: Mineral
Class: Hydroxides
Subclass: Goethite Group)
Particle Size: Fine  (0-74 Micrometers)
Sample No.: goethite.1
Owner: JHU
Wavelength Range: IR
Origin: Sample from Montreal, Wisconsin via the Smithsonian
Description: The sample consisted of a 4 cm x 2 cm x 2 cm cluster of
Measurement: Bidirectional reflectance
X Units: Wavelength (micrometers)
Y Units: Reflectance (percent)
wavelength	value
25.044	3.3433
24.339	3.1733
23.672	3.0071
23.041	3.0298
22.442	2.8899
21.874	3.0698
21.334	3.0039
20.82	3.0869
20.33	2.917
19.863	2.885
19.416	2.6531
18.99	2.5598
18.581	2.5337
18.19	2.3284
17.815	2.1638
17.455	1.9448
17.109	1.7539
16.777	1.6343
16.458	1.5747
16.15	1.5356
15.854	1.573
15.568	1.542
15.292	1.4448
15.027	1.2344
14.77	1.1331
14.521	1.2544
14.281	1.6011
14.049	1.895
13.824	1.9929
13.607	2.1589
13.396	2.2085
13.191	2.0686
12.993	1.9045
12.8	1.7515
12.614	1.7046
12.432	1.8503
12.256	1.9924
12.084	2.1582
11.918	2.1882
11.755	1.9526
11.598	1.7742
11.444	1.6765
11.294	1.5542
11.149	1.5144
11.007	1.4814
10.868	1.5618
10.733	1.7698
10.602	2.1035
10.473	2.3818
10.348	2.5435
10.225	2.759
10.106	2.9177
9.989	3.052
9.875	3.2368
9.763	3.4119
9.654	3.6128
9.547	3.8252
9.443	4.0076
9.341	4.1218
9.241	4.2051
9.143	4.2085
9.047	4.1684
8.954	4.2349
8.862	4.4204
8.772	4.7309
8.684	5.093
8.597	5.5332
8.513	5.9365
8.43	6.383
8.348	6.7893
8.268	7.1003
8.19	7.3667
8.113	7.6186
8.037	7.8364
7.963	8.2121
7.891	8.6706
7.819	8.9807
7.749	9.1015
7.68	9.1679
7.613	9.4568
7.546	9.6543
7.481	9.7077
7.417	9.9245
7.353	10.1592
7.291	10.302
7.23	10.4431
7.17	10.5559
7.111	10.4433
7.053	10.2505
6.996	10.1789
6.94	10.1941
6.885	10.2016
6.83	10.0866
6.777	10.0808
6.724	10.1662
6.672	10.2483
6.621	10.291
6.571	10.2273
6.521	10.0324
6.472	9.7292
6.424	9.3425
6.377	8.9941
6.33	8.6394
6.284	8.2075
6.238	7.6482
6.194	6.9438
6.15	6.1509
6.106	5.2346
6.063	4.2331
6.021	3.5666
5.979	4.0444
5.938	4.9656
5.898	5.5234
5.858	5.7048
5.818	5.6125
5.779	5.3684
5.741	5.0408
5.703	4.6741
5.666	4.3376
5.629	4.0698
5.592	3.895
5.556	3.9153
5.521	4.197
5.486	4.7317
5.451	5.4087
5.417	6.06
5.383	6.5071
5.35	6.727
5.317	6.7847
5.285	6.668
5.252	6.5068
5.221	6.3972
5.189	6.3623
5.158	6.4306
5.128	6.5234
5.097	6.5578
5.068	6.5642
5.038	6.6489
5.009	6.7497
4.98	6.8608
4.951	6.9756
4.923	7.103
4.895	7.2434
4.868	7.3887
4.84	7.5146
4.814	7.6111
4.787	7.6865
4.76	7.7615
4.734	7.8525
4.709	7.9262
4.683	7.99
4.658	8.0469
4.633	8.1057
4.608	8.1609
4.584	8.1999
4.56	8.2229
4.536	8.2043
4.512	8.1677
4.488	8.1264
4.465	8.0632
4.442	7.9975
4.42	7.9497
4.397	7.9236
4.375	7.8974
4.353	7.8791
4.331	7.8401
4.309	7.8025
4.288	7.7529
4.267	7.7497
4.246	7.72
4.225	7.6448
4.205	7.55
4.184	7.436
4.164	7.2942
4.144	7.1001
4.124	6.8945
4.105	6.6452
4.085	6.4028
4.066	6.2224
4.047	6.1531
4.028	6.1455
4.009	6.147
3.991	6.1089
3.973	6.02
3.954	5.9194
3.936	5.8015
3.918	5.6753
3.901	5.5249
3.883	5.3725
3.866	5.2258
3.849	5.1274
3.832	5.0156
3.815	4.9326
3.798	4.8188
3.781	4.7141
3.765	4.583
3.748	4.4543
3.732	4.3288
3.716	4.1767
3.7	4.0166
3.685	3.8669
3.669	3.7275
3.653	3.6033
3.638	3.5019
3.623	3.4099
3.608	3.3386
3.593	3.2849
3.578	3.2388
3.563	3.2222
3.548	3.1816
3.534	3.1648
3.519	3.1277
3.505	3.071
3.491	3.043
3.477	3.0054
3.463	2.9524
3.449	2.8987
3.435	2.8652
3.422	2.802
3.408	2.7507
3.395	2.6829
3.382	2.6035
3.369	2.5273
3.355	2.4231
3.342	2.3281
3.33	2.2165
3.317	2.1001
3.304	1.9744
3.292	1.8689
3.279	1.7358
3.267	1.6111
3.254	1.498
3.242	1.3989
3.23	1.3262
3.218	1.282
3.206	1.2434
3.194	1.2461
3.182	1.2432
3.171	1.2681
3.159	1.2856
3.148	1.3135
3.136	1.3284
3.125	1.3735
3.114	1.4028
3.102	1.4497
3.091	1.4927
3.08	1.55
3.069	1.6191
3.058	1.6794
3.048	1.761
3.037	1.8401
3.026	1.908
3.016	1.9778
3.005	2.0486
2.995	2.1204
2.985	2.208
2.974	2.3032
2.964	2.3872
2.954	2.5015
2.944	2.6094
2.934	2.7544
2.924	2.8845
2.914	3.0422
2.904	3.2141
2.895	3.3664
2.885	3.5654
2.875	3.7715
2.866	3.9851
2.856	4.2322
2.847	4.4785
2.838	4.7519
2.828	5.0222
2.819	5.3125
2.81	5.6582
2.801	6.0127
2.792	6.3906
2.783	6.789
2.774	7.2431
2.765	7.6804
2.756	8.1636
2.747	8.6858
2.739	9.2326
2.73	9.7866
2.721	10.2893
2.713	10.7143
2.704	11.1074
2.696	11.4409
2.687	11.7666
2.679	12.0844
2.671	12.3664
2.663	12.6543
2.654	12.8835
2.646	13.1255
2.638	13.3205
2.63	13.5107
2.622	13.6787
2.614	13.8261
2.606	13.9011
2.599	14.0368
2.591	14.1176
2.583	14.1582
2.575	14.2238
2.568	14.1728
2.56	14.1064
2.553	13.9943
2.545	13.8354
2.538	13.6455
2.53	13.476
2.523	13.3283
2.515	13.2768
2.508	13.2988
2.501	13.3393
2.494	13.3676
2.486	13.4394
2.479	13.5354
2.472	13.5732
2.465	13.603
2.458	13.5883
2.451	13.5888
2.444	13.4485
2.437	13.351
2.43	13.2646
2.424	13.1723
2.417	13.1167
2.41	13.1826
2.403	13.3725
2.397	13.6508
2.39	13.978
2.384	14.2612
2.377	14.4272
2.37	14.604
2.364	14.6565
2.358	14.7844
2.351	14.8393
2.345	14.9228
2.338	14.8877
2.332	14.8935
2.326	14.9782
2.32	15.019
2.313	15.0329
2.307	15.0832
2.301	15.1057
2.295	15.1115
2.289	15.09
2.283	15.0837
2.277	15.09
2.271	15.0876
2.265	15.1186
2.259	15.1484
2.253	15.1298
2.247	15.1694
2.241	15.1899
2.236	15.2863
2.23	15.3081
2.224	15.2971
2.218	15.3505
2.213	15.3452
2.207	15.3762
2.201	15.3691
2.196	15.4201
2.19	15.3908
2.185	15.4126
2.179	15.3789
2.174	15.4267
2.168	15.4816
2.163	15.4475
2.157	15.4829
2.152	15.4765
2.147	15.4377
2.141	15.4643
2.136	15.4311
2.131	15.4487
2.126	15.4765
2.12	15.4482
2.115	15.3567
2.11	15.3759
2.105	15.3149
2.1	15.2851
2.095	15.3379
2.09	15.3027
2.085	15.2551
2.079	15.1565
