Name: Dolomite CaMg(CO3)2
Type: Mineral
Class: Carbonates
Particle Size: Coarse  (74-250 Micrometers)
Sample No.: dolomite.2
Owner: JHU
Wavelength Range: IR
Origin: Hunt and Salisbury Collection #102B;  Sample from Lee,
Description: The sample appeared to be pure white dolomite in hand
Measurement: Bidirectional reflectance
X Units: Wavelength (micrometers)
Y Units: Reflectance (percent)
wavelength	value
25.044	5.6914
24.339	5.9787
23.672	5.8948
23.041	5.7832
22.442	4.8008
21.874	3.3984
21.334	2.1489
20.82	1.4119
20.33	1.0742
19.863	0.9702
19.416	1.0478
18.99	1.2957
18.581	1.4211
18.19	1.3638
17.815	1.3103
17.455	1.2429
17.109	1.2432
16.777	1.179
16.458	1.1619
16.15	1.2095
15.854	1.176
15.568	1.1055
15.292	1.1353
15.027	1.2498
14.77	1.3655
14.521	1.4019
14.281	1.4424
14.049	1.2441
13.824	1.1597
13.607	0.7087
13.396	1.3445
13.191	2.1089
12.993	2.792
12.8	2.9875
12.614	3.218
12.432	3.2642
12.256	3.2456
12.084	3.0788
11.918	2.7712
11.755	1.8213
11.598	1.9089
11.444	1.8005
11.294	2.9656
11.149	5.4341
11.007	3.1711
10.868	2.4263
10.733	2.3777
10.602	2.4018
10.473	2.5395
10.348	2.6089
10.225	2.6111
10.106	2.5405
9.989	2.585
9.875	2.5564
9.763	2.5056
9.654	2.5789
9.547	2.79
9.443	2.8213
9.341	2.5173
9.241	2.5632
9.143	2.5688
9.047	2.3701
8.954	2.3533
8.862	2.2815
8.772	2.2615
8.684	2.1018
8.597	1.9568
8.513	1.7248
8.43	1.5757
8.348	1.5784
8.268	1.6682
8.19	1.6052
8.113	1.54
8.037	1.6069
7.963	1.6506
7.891	1.6894
7.819	1.7246
7.749	1.6914
7.68	1.7275
7.613	1.7974
7.546	1.8403
7.481	1.855
7.417	1.929
7.353	1.9751
7.291	2.03
7.23	2.0815
7.17	2.1875
7.111	2.3652
7.053	2.8367
6.996	3.4324
6.94	3.4094
6.885	3.4665
6.83	3.6255
6.777	3.8352
6.724	4.0984
6.672	4.4245
6.621	4.9465
6.571	5.5022
6.521	6.1658
6.472	6.9646
6.424	7.698
6.377	8.1648
6.33	6.3606
6.284	4.7139
6.238	3.4927
6.194	2.8144
6.15	2.031
6.106	1.1704
6.063	0.6733
6.021	0.4927
5.979	0.501
5.938	0.5471
5.898	0.606
5.858	0.6587
5.818	0.709
5.779	0.7437
5.741	0.7678
5.703	0.8394
5.666	0.8374
5.629	0.8091
5.592	0.7869
5.556	0.7361
5.521	0.6638
5.486	0.6379
5.451	0.8489
5.417	1.4377
5.383	2.0249
5.35	2.4746
5.317	2.7478
5.285	3.0845
5.252	3.6057
5.221	4.1518
5.189	4.5745
5.158	5.0144
5.128	5.3171
5.097	5.5139
5.068	4.6365
5.038	5.685
5.009	6.197
4.98	6.345
4.951	6.4336
4.923	6.5132
4.895	6.5793
4.868	6.6372
4.84	6.6535
4.814	6.6614
4.787	6.6369
4.76	6.595
4.734	6.4787
4.709	6.1455
4.683	5.4194
4.658	4.0889
4.633	3.6802
4.608	3.6753
4.584	4.258
4.56	4.8525
4.536	5.2629
4.512	5.6326
4.488	6.3147
4.465	6.0359
4.442	5.4634
4.42	5.7029
4.397	6.292
4.375	6.7942
4.353	7.0561
4.331	6.2566
4.309	5.9187
4.288	5.8274
4.267	5.9604
4.246	6.1401
4.225	6.1931
4.205	6.3801
4.184	6.4319
4.164	6.1662
4.144	5.8432
4.124	5.8154
4.105	5.6369
4.085	5.3098
4.066	4.7847
4.047	4.1169
4.028	3.3118
4.009	2.4392
3.991	1.8044
3.973	1.4167
3.954	1.3311
3.936	1.3445
3.918	1.3845
3.901	1.5212
3.883	1.6108
3.866	1.6814
3.849	2.0964
3.832	2.2417
3.815	1.8337
3.798	1.7427
3.781	2.1028
3.765	2.6921
3.748	3.8606
3.732	5.1316
3.716	5.6365
3.7	6.0166
3.685	6.4328
3.669	6.6701
3.653	6.8127
3.638	6.8935
3.623	6.9092
3.608	6.8906
3.593	6.8325
3.578	6.6999
3.563	6.282
3.548	5.1106
3.534	5.3408
3.519	4.407
3.505	2.9651
3.491	2.0176
3.477	1.7502
3.463	1.646
3.449	1.592
3.435	1.7078
3.422	1.9311
3.408	2.0149
3.395	2.0901
3.382	2.2224
3.369	2.3003
3.355	2.0544
3.342	1.9185
3.33	1.9272
3.317	1.8249
3.304	1.7803
3.292	3.0095
3.279	4.3196
3.267	4.9678
3.254	5.4023
3.242	5.7688
3.23	6.0503
3.218	6.2536
3.206	6.4177
3.194	6.5229
3.182	6.5942
3.171	6.6711
3.159	6.6689
3.148	6.4126
3.136	6.187
3.125	6.1604
3.114	6.1609
3.102	6.1335
3.091	5.9675
3.08	5.8818
3.069	6.0137
3.058	6.1892
3.048	6.2463
3.037	6.2878
3.026	6.4512
3.016	6.5984
3.005	6.7065
2.995	6.7182
2.985	6.7124
2.974	6.7234
2.964	6.7519
2.954	6.7561
2.944	6.7178
2.934	6.7012
2.924	6.6814
2.914	6.698
2.904	6.7226
2.895	6.7605
2.885	6.8103
2.875	6.8655
2.866	6.925
2.856	6.9785
2.847	6.9853
2.838	6.9909
2.828	6.9665
2.819	6.895
2.81	6.7153
2.801	6.3369
2.792	5.7536
2.783	5.2109
2.774	4.8215
2.765	4.7175
2.756	4.9624
2.747	5.3161
2.739	5.6379
2.73	6.0207
2.721	6.4734
2.713	7.2358
2.704	7.893
2.696	8.0759
2.687	8.2219
2.679	8.5759
2.671	8.8418
2.663	9.0454
2.654	9.1867
2.646	9.2676
2.638	9.2903
2.63	9.2976
2.622	9.3042
2.614	9.3332
2.606	9.3232
2.599	9.365
2.591	9.3496
2.583	9.3147
2.575	9.2827
2.568	9.1836
2.56	9.0425
2.553	8.8801
2.545	8.4792
2.538	7.77
2.53	7.1658
2.523	6.7529
2.515	6.5989
2.508	6.6753
2.501	6.8349
2.494	7.0451
2.486	7.2866
2.479	7.4792
2.472	7.5615
2.465	7.5737
2.458	7.646
2.451	7.8098
2.444	8.0346
2.437	8.3252
2.43	8.5202
2.424	8.7336
2.417	8.9516
2.41	9.0722
2.403	9.1177
2.397	9.207
2.39	9.2693
2.384	9.3132
2.377	9.3662
2.37	9.3784
2.364	9.3659
2.358	9.2846
2.351	9.0903
2.345	8.7842
2.338	8.436
2.332	8.0864
2.326	7.8984
2.32	7.9277
2.313	8.031
2.307	8.1523
2.301	8.2817
2.295	8.374
2.289	8.541
2.283	8.6421
2.277	8.6609
2.271	8.6758
2.265	8.8037
2.259	8.9385
2.253	9.0722
2.247	9.2124
2.241	9.2837
2.236	9.3281
2.23	9.2871
2.224	9.2558
2.218	9.209
2.213	9.2109
2.207	9.2925
2.201	9.4023
2.196	9.5342
2.19	9.6518
2.185	9.7588
2.179	9.8261
2.174	9.8906
2.168	9.9111
2.163	9.9057
2.157	9.9204
2.152	9.8672
2.147	9.8677
2.141	9.8613
2.136	9.8821
2.131	9.8637
2.126	9.9145
2.12	9.9179
2.115	9.9218
2.11	9.9531
2.105	9.9663
2.1	9.9992
2.095	10.0151
2.09	9.9865
2.085	10.0637
2.079	10.0483
