Name: Olivine (Fo88) (Fe+2,Mg)2SiO4
Type: Mineral
Class: Silicates
Subclass: Nesosilicates (Isolated tetrahedra); (Olivine Group)
Particle Size: 0-60 micrometers.  (Packed powder simulates coarse.)
Sample No.: olivine.9
Owner: JHU
Wavelength Range: IR
Origin: South Point, Hawaii via Trude King #GSB
Description: Samples of olivine from an olivine sand beach were
Measurement: Bidirectional reflectance
X Units: Wavelength (micrometers)
Y Units: Reflectance (percent)
wavelength	value
25.0442	5.0425
24.3388	5.8789
23.6719	6.5969
23.0407	6.209
22.4422	5.6445
21.8741	3.79
21.334	3.9416
20.8199	3.0857
20.33	3.5344
19.8627	4.5657
19.4163	4.99
18.9896	5.8906
18.5812	5.6135
18.19	5.8906
17.815	5.5354
17.4551	4.509
17.1094	3.1684
16.7772	2.6526
16.4576	2.9409
16.15	3.4768
15.8537	3.8635
15.568	3.7351
15.2925	3.124
15.0265	2.7856
14.7697	2.8848
14.5214	3.1245
14.2814	3.3362
14.0492	3.5776
13.8244	3.8044
13.6067	3.9995
13.3957	3.9851
13.1912	4.0925
12.9929	4.1511
12.8004	4.0412
12.6135	3.8613
12.432	3.5825
12.2557	3.2913
12.0843	2.9726
11.9176	2.8337
11.7555	2.865
11.5977	3.2209
11.444	3.9856
11.2944	4.4995
11.1487	4.8418
11.0067	5.1714
10.8682	5.5627
10.7332	6.0278
10.6015	6.5159
10.473	6.5574
10.3476	5.2593
10.2251	4.9704
10.1056	5.914
9.98873	5.8464
9.87458	6.042
9.763	6.2617
9.65392	6.5095
9.54724	6.8804
9.44291	7.3562
9.34082	7.8838
9.24091	7.4294
9.14312	6.2917
9.04739	5.1626
8.95363	4.2934
8.8618	4.0317
8.77183	4.2331
8.68368	4.5578
8.59727	4.9001
8.51257	5.2134
8.42951	5.4639
8.34807	5.7734
8.26819	5.9988
8.18981	6.2243
8.11292	6.5705
8.03745	6.8371
7.96337	7.0539
7.89064	7.1426
7.81924	7.1611
7.74911	7.2268
7.68023	7.2829
7.61256	7.2427
7.54608	7.2077
7.48074	7.3645
7.41653	7.562
7.35341	7.7422
7.29136	7.9077
7.23034	7.9133
7.17033	7.979
7.11132	8.039
7.05327	8.03
6.99616	8.2031
6.93996	8.4138
6.88467	8.5061
6.83024	8.489
6.77667	8.6015
6.72393	8.7771
6.67201	8.9375
6.62089	9.0498
6.57054	9.0674
6.52095	9.041
6.4721	9.0632
6.42398	9.0635
6.37657	9.0337
6.32986	8.9643
6.28382	8.8681
6.23845	8.8694
6.19373	8.9004
6.14965	8.8594
6.10619	8.7102
6.06334	8.1977
6.02109	7.28
5.97942	7.1809
5.93832	7.3987
5.89778	7.4607
5.8578	7.5129
5.81835	7.6172
5.77943	7.7207
5.74103	7.6499
5.70314	7.2527
5.66574	6.7373
5.62883	6.4673
5.5924	6.759
5.55644	7.3415
5.52093	7.5022
5.48588	7.4734
5.45127	7.4536
5.41709	7.626
5.38334	7.8545
5.35	8.0569
5.31708	8.1638
5.28456	8.2077
5.25243	8.1755
5.2207	8.1929
5.18934	8.3735
5.15836	8.5788
5.12775	8.7734
5.09749	8.9162
5.0676	9.0119
5.03805	9.0219
5.00884	8.9648
4.97998	8.8249
4.95144	8.6941
4.92322	8.9499
4.89533	9.4096
4.86775	9.9558
4.84048	10.2778
4.81351	10.4218
4.78684	10.5154
4.76047	10.5749
4.73439	10.6281
4.70859	10.6626
4.68306	10.6975
4.65782	10.7317
4.63284	10.7605
4.60814	10.8022
4.58369	10.8344
4.5595	10.8633
4.53557	10.9016
4.51188	10.9299
4.48845	10.9641
4.46525	10.9941
4.44229	11.0305
4.41957	11.0722
4.39708	11.1067
4.37481	11.1355
4.35277	11.1521
4.33096	11.1909
4.30935	11.2199
4.28797	11.2588
4.26679	11.2812
4.24583	11.322
4.22506	11.3508
4.2045	11.3764
4.18414	11.3989
4.16398	11.4089
4.14401	11.4394
4.12423	11.4475
4.10464	11.4741
4.08523	11.4946
4.066	11.5051
4.04696	11.508
4.02809	11.4878
4.0094	11.4878
3.99088	11.5049
3.97253	11.5239
3.95435	11.5337
3.93634	11.5532
3.91848	11.5569
3.90079	11.5754
3.88326	11.5686
3.86589	11.5493
3.84867	11.5405
3.8316	11.539
3.81468	11.5359
3.79791	11.542
3.78129	11.5515
3.76482	11.5583
3.74848	11.5583
3.73229	11.5398
3.71624	11.5388
3.70032	11.5219
3.68454	11.5105
3.6689	11.5195
3.65338	11.5139
3.638	11.5019
3.62275	11.5007
3.60762	11.4865
3.59262	11.4653
3.57775	11.4365
3.56299	11.4008
3.54836	11.3598
3.53385	11.3044
3.51945	11.1391
3.50517	10.6819
3.49101	10.8405
3.47696	10.926
3.46303	10.9265
3.4492	10.7778
3.43549	10.5554
3.42188	10.1176
3.40838	10.2348
3.39499	10.583
3.38171	10.5495
3.36852	10.6799
3.35544	10.9043
3.34246	10.9685
3.32958	10.9807
3.3168	10.9653
3.30411	10.9585
3.29153	10.9353
3.27903	10.9065
3.26664	10.8728
3.25433	10.8432
3.24212	10.8132
3.23	10.7685
3.21797	10.7448
3.20603	10.7112
3.19418	10.6823
3.18241	10.6103
3.17074	10.5713
3.15914	10.5293
3.14763	10.4763
3.13621	10.4336
3.12487	10.3899
3.11361	10.3603
3.10243	10.2993
3.09133	10.2785
3.0803	10.2539
3.06936	10.2058
3.0585	10.1828
3.04771	10.1501
3.037	10.1179
3.02636	10.0952
3.0158	10.0547
3.00531	10.019
2.99489	9.9858
2.98454	9.9599
2.97427	9.9087
2.96407	9.8926
2.95393	9.8808
2.94387	9.8755
2.93387	9.875
2.92394	9.8725
2.91408	9.844
2.90429	9.8401
2.89456	9.8354
2.88489	9.8281
2.87529	9.8347
2.86576	9.8432
2.85628	9.8777
2.84687	9.8882
2.83752	9.9355
2.82823	9.9773
2.81901	9.9978
2.80984	10.0366
2.80073	10.0725
2.79168	10.0786
2.78269	10.1416
2.77376	10.2011
2.76488	10.2566
2.75606	10.3352
2.7473	10.4326
2.73859	10.5432
2.72994	10.6128
2.72134	10.7451
2.7128	10.8178
2.70431	10.9787
2.69587	11.1811
2.68748	11.2998
2.67915	11.3891
2.67087	11.4175
2.66264	11.4236
2.65446	11.3911
2.64633	11.3774
2.63825	11.3838
2.63021	11.3818
2.62223	11.3332
2.6143	11.3525
2.60641	11.3364
2.59857	11.3523
2.59078	11.3152
2.58304	11.3215
2.57534	11.2986
2.56768	11.2512
2.56008	11.2446
2.55251	11.2419
2.54499	11.2114
2.53752	11.2236
2.53009	11.1819
2.5227	11.1606
2.51536	11.1098
2.50806	11.1303
2.5008	11.1191
2.49358	11.1238
2.4864	11.0954
2.47927	11.1089
2.47218	11.0634
2.46512	11.0705
2.45811	11.0654
2.45114	11.0385
2.4442	11.0205
2.43731	11.0268
2.43045	10.9948
2.42363	10.9868
2.41685	10.9592
2.41011	10.9536
2.40341	10.9726
2.39674	10.9658
2.39011	10.926
2.38352	10.9267
2.37696	10.9106
2.37044	10.9087
2.36395	10.8569
2.35751	10.8501
2.35109	10.8803
2.34471	10.8681
2.33836	10.8601
2.33205	10.8662
2.32578	10.8686
2.31953	10.8686
2.31332	10.8606
2.30714	10.8755
2.301	10.8559
2.29489	10.8598
2.28881	10.8637
2.28276	10.851
2.27675	10.8564
2.27076	10.8628
2.26481	10.8325
2.25889	10.8432
2.253	10.8847
2.24714	10.873
2.24131	10.8398
2.23551	10.851
2.22974	10.8447
2.224	10.8301
2.21829	10.8657
2.21261	10.8257
2.20696	10.8257
2.20134	10.8259
2.19574	10.8559
2.19018	10.8833
2.18464	10.8945
2.17913	10.8528
2.17365	10.8984
2.16819	10.8911
2.16277	10.8691
2.15737	10.9184
2.15199	10.8696
2.14665	10.8852
2.14133	10.9309
2.13603	10.9428
2.13077	10.905
2.12552	10.9328
2.12031	10.9765
2.11512	10.9328
2.10995	10.9404
2.10481	10.9433
2.0997	10.968
2.09461	10.9963
2.08954	11.018
2.0845	11.0219
2.07948	11.009
