Name: Illite (K,H3O)(Al,Mg,Fe)2(Si,Al)4O10[(OH)2,H2O]
Type: Mineral
Class: Silicates
Subclass: Phyllosilicates (Sheet Silicates); (MicaGroup)
Particle Size: 0-2 micrometers.  (Packed powder simulates coarse.)
Sample No.: illite.1
Owner: JHU
Wavelength Range: IR
Origin: Silver Hill, Montana via Clay Mineral Society, Source Clay
Description: The sample was a greenish, earthy clay.  The bulk
Measurement: Bidirectional reflectance
X Units: Wavelength (micrometers)
Y Units: Reflectance (percent)
wavelength	value
25.0442	7.5586
24.3388	7.4736
23.6719	7.893
23.0407	7.7412
22.4422	7.5107
21.8741	7.7939
21.334	8.8449
20.8199	9.4531
20.33	8.6294
19.8627	8.1404
19.4163	8.3325
18.9896	9.0815
18.5812	10.053
18.19	10.5852
17.815	10.7275
17.4551	10.3142
17.1094	9.1589
16.7772	7.0867
16.4576	4.916
16.15	3.6448
15.8537	3.0359
15.568	2.7095
15.2925	2.7195
15.0265	2.8245
14.7697	2.957
14.5214	2.9602
14.2814	3.0107
14.0492	3.0535
13.8244	3.2095
13.6067	3.3369
13.3957	3.3694
13.1912	3.3535
12.9929	3.4233
12.8004	3.5557
12.6135	3.6374
12.432	3.6555
12.2557	3.666
12.0843	3.6345
11.9176	3.637
11.7555	3.7646
11.5977	3.8454
11.444	3.8413
11.2944	3.8655
11.1487	3.895
11.0067	3.8923
10.8682	3.8044
10.7332	3.8039
10.6015	3.8701
10.473	3.9817
10.3476	4.1318
10.2251	4.3503
10.1056	4.6599
9.98873	5.0134
9.87458	5.439
9.763	5.9573
9.65392	6.8569
9.54724	7.9624
9.44291	8.6235
9.34082	8.5097
9.24091	8.2898
9.14312	8.7458
9.04739	9.3459
8.95363	9.8178
8.8618	10.4253
8.77183	10.563
8.68368	9.6906
8.59727	8.28
8.51257	6.4695
8.42951	4.0388
8.34807	1.7568
8.26819	0.6768
8.18981	0.6548
8.11292	0.8516
8.03745	1.0674
7.96337	1.2932
7.89064	1.4978
7.81924	1.7258
7.74911	1.9287
7.68023	2.1206
7.61256	2.3061
7.54608	2.4634
7.48074	2.626
7.41653	2.7507
7.35341	2.8801
7.29136	2.99
7.23034	3.0854
7.17033	3.1272
7.11132	3.064
7.05327	3.0454
6.99616	3.1348
6.93996	3.3076
6.88467	3.5002
6.83024	3.6792
6.77667	3.8325
6.72393	4.0144
6.67201	4.189
6.62089	4.331
6.57054	4.4431
6.52095	4.5261
6.4721	4.5854
6.42398	4.6025
6.37657	4.5608
6.32986	4.4477
6.28382	4.2353
6.23845	3.937
6.19373	3.5869
6.14965	3.2075
6.10619	3.1294
6.06334	3.2056
6.02109	3.2844
5.97942	3.4189
5.93832	3.6748
5.89778	3.9495
5.8578	4.2202
5.81835	4.4243
5.77943	4.5244
5.74103	4.5981
5.70314	4.6543
5.66574	4.6789
5.62883	4.6887
5.5924	4.6782
5.55644	4.6777
5.52093	4.6882
5.48588	4.719
5.45127	4.792
5.41709	4.9072
5.38334	5.0046
5.35	5.1233
5.31708	5.2561
5.28456	5.3816
5.25243	5.5329
5.2207	5.6733
5.18934	5.844
5.15836	6.0027
5.12775	6.1614
5.09749	6.2991
5.0676	6.4197
5.03805	6.5215
5.00884	6.6162
4.97998	6.687
4.95144	6.7536
4.92322	6.8049
4.89533	6.8567
4.86775	6.9099
4.84048	6.9531
4.81351	7.0017
4.78684	7.0427
4.76047	7.0871
4.73439	7.1479
4.70859	7.2036
4.68306	7.2624
4.65782	7.3315
4.63284	7.3894
4.60814	7.4531
4.58369	7.5134
4.5595	7.5444
4.53557	7.591
4.51188	7.6257
4.48845	7.6592
4.46525	7.6987
4.44229	7.7429
4.41957	7.7812
4.39708	7.8044
4.37481	7.8213
4.35277	7.8308
4.33096	7.8415
4.30935	7.8428
4.28797	7.8376
4.26679	7.802
4.24583	7.8528
4.22506	7.8987
4.2045	7.9294
4.18414	7.9326
4.16398	7.9367
4.14401	7.9634
4.12423	7.9739
4.10464	7.989
4.08523	8.0124
4.066	8.0305
4.04696	8.0544
4.02809	8.0554
4.0094	8.0566
3.99088	8.0512
3.97253	8.0478
3.95435	8.0483
3.93634	8.0364
3.91848	8.0398
3.90079	8.0217
3.88326	7.9927
3.86589	7.9568
3.84867	7.9155
3.8316	7.8782
3.81468	7.8388
3.79791	7.7995
3.78129	7.7517
3.76482	7.6933
3.74848	7.6269
3.73229	7.5515
3.71624	7.4961
3.70032	7.4263
3.68454	7.3491
3.6689	7.293
3.65338	7.2329
3.638	7.1665
3.62275	7.0954
3.60762	7.0132
3.59262	6.9402
3.57775	6.8359
3.56299	6.7497
3.54836	6.654
3.53385	6.5659
3.51945	6.4685
3.50517	6.3725
3.49101	6.3064
3.47696	6.2385
3.46303	6.1528
3.4492	6.0498
3.43549	5.9387
3.42188	5.8135
3.40838	5.7185
3.39499	5.6465
3.38171	5.5432
3.36852	5.4702
3.35544	5.3865
3.34246	5.2922
3.32958	5.2007
3.3168	5.0942
3.30411	5.0085
3.29153	4.9206
3.27903	4.8359
3.26664	4.7495
3.25433	4.6521
3.24212	4.5713
3.23	4.4831
3.21797	4.3889
3.20603	4.3066
3.19418	4.2222
3.18241	4.1426
3.17074	4.0525
3.15914	3.9805
3.14763	3.9067
3.13621	3.8257
3.12487	3.772
3.11361	3.71
3.10243	3.6597
3.09133	3.6265
3.0803	3.6186
3.06936	3.5788
3.0585	3.5776
3.04771	3.5644
3.037	3.5339
3.02636	3.5271
3.0158	3.501
3.00531	3.4783
2.99489	3.4519
2.98454	3.4258
2.97427	3.4082
2.96407	3.3821
2.95393	3.3577
2.94387	3.3369
2.93387	3.3254
2.92394	3.3193
2.91408	3.3359
2.90429	3.3345
2.89456	3.3367
2.88489	3.3396
2.87529	3.3403
2.86576	3.3291
2.85628	3.2834
2.84687	3.1265
2.83752	2.9228
2.82823	2.7175
2.81901	2.5317
2.80984	2.3599
2.80073	2.2012
2.79168	2.0251
2.78269	1.8433
2.77376	1.6653
2.76488	1.5652
2.75606	1.5166
2.7473	1.634
2.73859	1.7771
2.72994	2.0337
2.72134	2.5618
2.7128	3.2288
2.70431	3.3269
2.69587	4.4802
2.68748	5.4365
2.67915	6.091
2.67087	6.4973
2.66264	6.7942
2.65446	6.9348
2.64633	7.0036
2.63825	7.0959
2.63021	7.1516
2.62223	7.1545
2.6143	7.1684
2.60641	7.2392
2.59857	7.268
2.59078	7.2815
2.58304	7.3528
2.57534	7.3454
2.56768	7.363
2.56008	7.3889
2.55251	7.4006
2.54499	7.4155
2.53752	7.4375
2.53009	7.4289
2.5227	7.4219
2.51536	7.4179
2.50806	7.3974
2.5008	7.3755
2.49358	7.3777
2.4864	7.3745
2.47927	7.3772
2.47218	7.3535
2.46512	7.3721
2.45811	7.3647
2.45114	7.3501
2.4442	7.3557
2.43731	7.3794
2.43045	7.3823
2.42363	7.438
2.41685	7.4634
2.41011	7.52
2.40341	7.5166
2.39674	7.5093
2.39011	7.5151
2.38352	7.48
2.37696	7.4431
2.37044	7.4521
2.36395	7.4292
2.35751	7.4316
2.35109	7.4067
2.34471	7.4321
2.33836	7.4502
2.33205	7.5268
2.32578	7.6011
2.31953	7.6284
2.31332	7.7256
2.30714	7.7431
2.301	7.7409
2.29489	7.8384
2.28881	7.8481
2.28276	7.852
2.27675	7.8496
2.27076	7.79
2.26481	7.7109
2.25889	7.6538
2.253	7.6557
2.24714	7.656
2.24131	7.6511
2.23551	7.6218
2.22974	7.5466
2.224	7.4563
2.21829	7.5044
2.21261	7.4692
2.20696	7.4853
2.20134	7.5129
2.19574	7.6203
2.19018	7.6882
2.18464	7.8091
2.17913	7.8974
2.17365	7.9719
2.16819	8.018
2.16277	8.0578
2.15737	8.1116
2.15199	8.0908
2.14665	8.1225
2.14133	8.1596
2.13603	8.1806
2.13077	8.1645
2.12552	8.1574
2.12031	8.229
2.11512	8.2578
2.10995	8.1968
2.10481	8.2199
2.0997	8.2051
2.09461	8.2529
2.08954	8.3066
2.0845	8.2842
2.07948	8.2837
