Name: Augite (Ca,Na)(Mg,Fe,Al,Ti)(Si,Al)2O6
Type: Mineral
Class: Silicates
Subclass: Inosilicates (Pyroxene Group - single chain)
Particle Size: Solid
Sample No.: augite.2
Owner: JHU
Wavelength Range: IR
Origin: Sample from Rozier, near Gorges du Tarn, Tarn, France via
Description: The sample was a single 22.31 g portion of a single
Measurement: Bidirectional reflectance
X Units: Wavelength (micrometers)
Y Units: Reflectance (percent)
wavelength	value
25.0442	14.2534
24.3388	15.1062
23.6719	15.1355
23.0407	15.0588
22.4422	14.9931
21.8741	16.4751
21.334	18.4677
20.8199	19.7429
20.33	20.5681
19.8627	21.7219
19.4163	22.4338
18.9896	22.1655
18.5812	20.7502
18.19	19.4697
17.815	18.9846
17.4551	17.5778
17.1094	14.2229
16.7772	9.7217
16.4576	5.3298
16.15	3.9592
15.8537	4.3008
15.568	4.718
15.2925	3.2847
15.0265	2.9519
14.7697	3.2908
14.5214	3.552
14.2814	3.9363
14.0492	4.2817
13.8244	4.6655
13.6067	5.0754
13.3957	5.4873
13.1912	5.8345
12.9929	6.1279
12.8004	6.4285
12.6135	6.792
12.432	7.2378
12.2557	7.7851
12.0843	8.4626
11.9176	9.3047
11.7555	10.5988
11.5977	12.1665
11.444	13.2927
11.2944	13.9074
11.1487	14.311
11.0067	14.8945
10.8682	15.6472
10.7332	16.216
10.6015	16.7341
10.473	16.9067
10.3476	16.7211
10.2251	15.6584
10.1056	14.4922
9.98873	14.113
9.87458	14.0063
9.763	14.2246
9.65392	14.883
9.54724	15.8618
9.44291	16.9575
9.34082	17.6889
9.24091	17.5246
9.14312	16.7661
9.04739	15.8886
8.95363	14.8203
8.8618	13.2707
8.77183	10.7165
8.68368	7.8679
8.59727	3.9661
8.51257	1.106
8.42951	0.718
8.34807	0.9453
8.26819	1.1636
8.18981	1.366
8.11292	1.5537
8.03745	1.7317
7.96337	1.8867
7.89064	2.0442
7.81924	2.1843
7.74911	2.3157
7.68023	2.437
7.61256	2.5496
7.54608	2.6562
7.48074	2.7681
7.41653	2.8682
7.35341	2.9568
7.29136	3.0454
7.23034	3.1189
7.17033	3.1904
7.11132	3.2661
7.05327	3.3325
6.99616	3.407
6.93996	3.4831
6.88467	3.5466
6.83024	3.6057
6.77667	3.6492
6.72393	3.6772
6.67201	3.7012
6.62089	3.7139
6.57054	3.7319
6.52095	3.7468
6.4721	3.7642
6.42398	3.7815
6.37657	3.8227
6.32986	3.8642
6.28382	3.9136
6.23845	3.9648
6.19373	3.9971
6.14965	4.0395
6.10619	4.0649
6.06334	4.0842
6.02109	4.1299
5.97942	4.1704
5.93832	4.2165
5.89778	4.2671
5.8578	4.3411
5.81835	4.3962
5.77943	4.4556
5.74103	4.5141
5.70314	4.5837
5.66574	4.6465
5.62883	4.7024
5.5924	4.7471
5.55644	4.8057
5.52093	4.8328
5.48588	4.8516
5.45127	4.8535
5.41709	4.8332
5.38334	4.8235
5.35	4.8071
5.31708	4.7903
5.28456	4.7783
5.25243	4.7891
5.2207	4.7981
5.18934	4.8078
5.15836	4.8342
5.12775	4.8589
5.09749	4.8826
5.0676	4.9114
5.03805	4.9531
5.00884	4.9956
4.97998	5.03
4.95144	5.0796
4.92322	5.1169
4.89533	5.1714
4.86775	5.2148
4.84048	5.2744
4.81351	5.3298
4.78684	5.3843
4.76047	5.4414
4.73439	5.4953
4.70859	5.5559
4.68306	5.6328
4.65782	5.7031
4.63284	5.7766
4.60814	5.8445
4.58369	5.9165
4.5595	5.9761
4.53557	6.042
4.51188	6.0832
4.48845	6.1218
4.46525	6.1594
4.44229	6.186
4.41957	6.2131
4.39708	6.2358
4.37481	6.259
4.35277	6.2803
4.33096	6.2986
4.30935	6.3132
4.28797	6.332
4.26679	6.3447
4.24583	6.365
4.22506	6.3823
4.2045	6.3923
4.18414	6.4045
4.16398	6.4172
4.14401	6.4402
4.12423	6.4453
4.10464	6.4585
4.08523	6.4812
4.066	6.4968
4.04696	6.5022
4.02809	6.5146
4.0094	6.5298
3.99088	6.5434
3.97253	6.5542
3.95435	6.5679
3.93634	6.5832
3.91848	6.603
3.90079	6.6216
3.88326	6.6391
3.86589	6.6523
3.84867	6.6609
3.8316	6.6733
3.81468	6.6758
3.79791	6.697
3.78129	6.7077
3.76482	6.7104
3.74848	6.7239
3.73229	6.7241
3.71624	6.7307
3.70032	6.7439
3.68454	6.7414
3.6689	6.7534
3.65338	6.7612
3.638	6.7576
3.62275	6.7715
3.60762	6.7768
3.59262	6.7829
3.57775	6.7932
3.56299	6.7915
3.54836	6.7961
3.53385	6.8025
3.51945	6.8091
3.50517	6.8025
3.49101	6.8257
3.47696	6.8401
3.46303	6.8491
3.4492	6.8613
3.43549	6.8511
3.42188	6.8518
3.40838	6.8337
3.39499	6.8511
3.38171	6.8474
3.36852	6.8555
3.35544	6.876
3.34246	6.8877
3.32958	6.8972
3.3168	6.9087
3.30411	6.9136
3.29153	6.9109
3.27903	6.9172
3.26664	6.9197
3.25433	6.9143
3.24212	6.9201
3.23	6.9245
3.21797	6.9216
3.20603	6.9241
3.19418	6.927
3.18241	6.9219
3.17074	6.9292
3.15914	6.9236
3.14763	6.9346
3.13621	6.9377
3.12487	6.9355
3.11361	6.9302
3.10243	6.9277
3.09133	6.9326
3.0803	6.9292
3.06936	6.9294
3.0585	6.927
3.04771	6.9299
3.037	6.9236
3.02636	6.9316
3.0158	6.9133
3.00531	6.9001
2.99489	6.884
2.98454	6.8923
2.97427	6.8708
2.96407	6.8625
2.95393	6.8323
2.94387	6.8174
2.93387	6.7766
2.92394	6.7339
2.91408	6.7163
2.90429	6.6887
2.89456	6.6911
2.88489	6.6692
2.87529	6.6521
2.86576	6.6535
2.85628	6.6433
2.84687	6.6418
2.83752	6.6487
2.82823	6.6692
2.81901	6.6921
2.80984	6.7361
2.80073	6.7717
2.79168	6.7654
2.78269	6.7722
2.77376	6.7671
2.76488	6.7607
2.75606	6.7871
2.7473	6.8623
2.73859	6.9758
2.72994	7.094
2.72134	7.1826
2.7128	7.2517
2.70431	7.2939
2.69587	7.3225
2.68748	7.3667
2.67915	7.3913
2.67087	7.3735
2.66264	7.374
2.65446	7.3791
2.64633	7.3576
2.63825	7.3628
2.63021	7.3496
2.62223	7.3454
2.6143	7.3298
2.60641	7.3078
2.59857	7.3059
2.59078	7.2981
2.58304	7.2798
2.57534	7.2771
2.56768	7.2624
2.56008	7.2368
2.55251	7.2153
2.54499	7.2187
2.53752	7.1853
2.53009	7.1926
2.5227	7.1513
2.51536	7.1406
2.50806	7.1262
2.5008	7.1069
2.49358	7.091
2.4864	7.0495
2.47927	7.0517
2.47218	7.0417
2.46512	7.01
2.45811	7.0117
2.45114	6.9863
2.4442	6.9629
2.43731	6.9668
2.43045	6.9604
2.42363	6.9465
2.41685	6.9228
2.41011	6.9404
2.40341	6.9099
2.39674	6.9241
2.39011	6.8784
2.38352	6.8894
2.37696	6.8711
2.37044	6.8826
2.36395	6.8772
2.35751	6.8591
2.35109	6.8327
2.34471	6.8457
2.33836	6.8347
2.33205	6.8157
2.32578	6.8027
2.31953	6.8264
2.31332	6.8166
2.30714	6.8369
2.301	6.8044
2.29489	6.8276
2.28881	6.8008
2.28276	6.8132
2.27675	6.803
2.27076	6.8118
2.26481	6.802
2.25889	6.821
2.253	6.8052
2.24714	6.8159
2.24131	6.8171
2.23551	6.8091
2.22974	6.8125
2.224	6.7898
2.21829	6.8362
2.21261	6.8276
2.20696	6.812
2.20134	6.8476
2.19574	6.8342
2.19018	6.8193
2.18464	6.842
2.17913	6.8327
2.17365	6.8371
2.16819	6.8508
2.16277	6.8901
2.15737	6.8862
2.15199	6.8784
2.14665	6.8581
2.14133	6.8586
2.13603	6.8857
2.13077	6.8772
2.12552	6.9314
2.12031	6.9126
2.11512	6.9543
2.10995	6.9414
2.10481	6.9331
2.0997	6.9519
2.09461	6.9836
2.08954	7.0044
2.0845	7.0007
2.07948	6.9922
