Name: 10084.1939
Type: Soil
Class: Lunar
Subclass: Maria
Particle Size: Fine
Sample No.: 10084.1939
Owner: JHU
Origin: Apollo 11 landing site via the NASA Lunar Sample Repository at Johnson
Description: This is the only sample from the Apollo 11 mare site.  This sample
Measurement: Directional (10 degree) hemispherical reflectance
X Units: Wavelength (micrometers)
Y Units: Reflectance (percent)
wavelength	value
14.011	1.4886
13.788	1.3128
13.571	1.4348
13.361	1.4889
13.158	1.421
12.96	1.5236
12.769	1.6062
12.583	1.8052
12.402	1.9642
12.227	2.0994
12.056	2.1211
11.89	2.1091
11.729	2.1466
11.572	2.1901
11.419	2.2462
11.27	2.2001
11.125	2.1948
10.983	2.1764
10.846	2.1939
10.711	2.1582
10.58	2.1128
10.452	2.0416
10.327	1.9604
10.205	1.8781
10.086	1.8537
9.97	1.7679
9.856	1.7754
9.745	1.7448
9.636	1.7163
9.53	1.7145
9.426	1.7429
9.324	1.7392
9.225	1.6995
9.127	1.6841
9.032	1.5786
8.938	1.4089
8.847	1.2389
8.757	1.1538
8.669	1.0928
8.583	1.0796
8.499	1.0711
8.416	1.0686
8.335	1.1752
8.255	1.3408
8.177	1.6414
8.1	2.0019
8.025	2.4827
7.951	3.1124
7.879	3.7207
7.808	4.276
7.737	4.7765
7.669	5.2815
7.601	5.7488
7.535	6.1809
7.47	6.6007
7.406	7.0016
7.343	7.3551
7.281	7.683
7.22	7.9879
7.16	8.2758
7.102	8.5582
7.044	8.7631
6.987	9.0331
6.931	9.2803
6.875	9.464
6.821	9.6403
6.768	9.7641
6.715	9.8377
6.663	9.9057
6.612	9.9624
6.562	9.9817
6.513	10.066
6.464	10.175
6.416	10.097
6.369	10.321
6.322	10.405
6.276	10.493
6.231	10.556
6.186	10.549
6.142	10.723
6.099	10.833
6.056	10.876
6.014	11.088
5.973	11.259
5.931	11.434
5.891	11.688
5.851	11.937
5.812	12.149
5.773	12.311
5.735	12.51
5.697	12.61
5.66	12.683
5.623	12.806
5.586	12.882
5.551	12.968
5.515	13.038
5.48	13.029
5.446	13.022
5.411	13.004
5.378	13.034
5.345	12.998
5.312	13.06
5.279	13.163
5.247	13.3
5.215	13.425
5.184	13.616
5.153	13.706
5.123	13.875
5.093	14.009
5.063	14.153
5.033	14.321
5.004	14.517
4.975	14.676
4.947	14.871
4.919	15.07
4.891	15.229
4.863	15.369
4.836	15.51
4.809	15.664
4.782	15.76
4.756	15.909
4.73	16.035
4.704	16.162
4.679	16.276
4.654	16.371
4.629	16.473
4.604	16.561
4.58	16.626
4.556	16.697
4.532	16.739
4.508	16.771
4.485	16.803
4.461	16.822
4.439	16.839
4.416	16.829
4.393	16.846
4.371	16.864
4.349	16.882
4.327	16.888
4.306	16.919
4.284	16.939
4.263	16.937
4.242	16.932
4.222	16.944
4.201	16.902
4.181	16.893
4.161	16.872
4.141	16.888
4.121	16.858
4.101	16.866
4.082	16.858
4.063	16.841
4.044	16.834
4.025	16.823
4.006	16.808
3.988	16.822
3.97	16.783
3.951	16.791
3.933	16.769
3.916	16.756
3.898	16.72
3.88	16.688
3.863	16.683
3.846	16.627
3.829	16.609
3.812	16.619
3.795	16.567
3.779	16.538
3.762	16.529
3.746	16.484
3.73	16.469
3.714	16.418
3.698	16.403
3.682	16.36
3.666	16.337
3.651	16.317
3.636	16.297
3.62	16.269
3.605	16.217
3.59	16.203
3.575	16.164
3.561	16.131
3.546	16.098
3.531	16.055
3.517	16.07
3.503	16.062
3.489	15.999
3.475	15.962
3.461	15.928
3.447	15.938
3.433	15.926
3.42	15.877
3.406	15.837
3.393	15.812
3.38	15.746
3.366	15.682
3.353	15.645
3.34	15.632
3.327	15.555
3.315	15.528
3.302	15.507
3.289	15.482
3.277	15.441
3.265	15.406
3.252	15.358
3.24	15.283
3.228	15.266
3.216	15.249
3.204	15.197
3.192	15.14
3.18	15.143
3.169	15.103
3.157	15.062
3.146	15.024
3.134	14.973
3.123	14.989
3.112	14.915
3.101	14.889
3.09	14.872
3.079	14.811
3.067	14.796
3.057	14.741
3.046	14.717
3.035	14.703
3.025	14.635
3.014	14.587
3.004	14.574
2.993	14.51
2.983	14.483
2.973	14.485
2.962	14.473
2.952	14.389
2.942	14.384
2.932	14.355
2.922	14.348
2.912	14.317
2.903	14.258
2.893	14.214
2.883	14.275
2.874	14.203
2.864	14.194
2.855	14.143
2.845	14.151
2.836	14.037
2.827	14.079
2.817	14.048
2.808	14.075
2.799	14.085
2.79	14.114
2.781	14.106
2.772	14.129
2.763	14.189
2.755	14.196
2.746	14.297
2.737	14.337
2.728	14.355
2.72	14.291
2.711	14.318
2.703	14.374
2.695	14.28
2.686	14.338
2.678	14.177
2.67	14.137
2.661	14.216
2.653	14.167
2.645	14.17
2.637	14.17
2.629	14.029
2.621	14.009
2.613	14.029
2.605	13.905
2.597	13.962
2.59	13.962
2.582	13.874
2.574	13.804
2.566	13.828
2.559	13.793
2.551	13.743
2.544	13.708
2.536	13.663
2.529	13.643
2.522	13.596
2.514	13.593
2.507	13.538
2.5	13.512
2.492	13.468
2.485	13.414
2.478	13.377
2.471	13.36
2.464	13.347
2.457	13.301
2.45	13.267
2.443	13.204
2.436	13.153
2.429	13.119
2.422	13.094
2.416	13.081
2.409	13.011
2.402	13.014
2.396	13.003
2.389	12.965
2.382	12.959
2.376	12.911
2.369	12.893
2.363	12.823
2.356	12.836
2.35	12.824
2.344	12.796
2.337	12.727
2.331	12.722
2.325	12.693
2.318	12.661
2.312	12.668
2.306	12.58
2.3	12.591
2.294	12.618
2.288	12.551
2.282	12.489
2.276	12.488
2.27	12.485
2.264	12.507
2.258	12.424
2.252	12.384
2.246	12.355
2.24	12.39
2.235	12.318
2.229	12.28
2.223	12.271
2.217	12.238
2.212	12.23
2.206	12.231
2.2	12.227
2.195	12.162
2.189	12.183
2.184	12.134
2.178	12.163
2.173	12.122
2.167	12.1
2.162	12.07
2.156	12.084
2.151	12.032
2.146	11.995
2.14	12.03
2.135	12.011
2.13	12.003
2.125	12.001
2.119	12.008
2.114	11.927
2.109	11.924
2.104	11.923
2.099	11.885
2.094	11.887
2.089	11.885
2.084	11.797
