Name: Barite, BaSO4
Type: Mineral
Class: Sulfates
Particle Size: Solid
Sample No.: barite.1
Owner: JHU
Wavelength Range: IR
Origin: Norma Vergo Sample from Carterville, Georgia.
Description: The pure white sample appeared to be pure barite with
Measurement: Bidirectional reflectance
X Units: Wavelength (micrometers)
Y Units: Reflectance (percent)
wavelength	value
25.0442	3.2734
24.3388	3.436
23.6719	3.5317
23.0407	3.7668
22.4422	3.7727
21.8741	3.8423
21.334	3.8599
20.8199	4.0166
20.33	4.1401
19.8627	4.2327
19.4163	4.2607
18.9896	4.3611
18.5812	4.479
18.19	4.5869
17.815	4.8169
17.4551	5.1103
17.1094	5.6846
16.7772	7.1421
16.4576	12.1406
16.15	11.1184
15.8537	4.4414
15.568	5.7676
15.2925	3.9004
15.0265	1.7903
14.7697	2.3423
14.5214	2.6987
14.2814	2.9211
14.0492	3.0847
13.8244	3.2478
13.6067	3.3862
13.3957	3.5007
13.1912	3.6133
12.9929	3.6562
12.8004	3.6833
12.6135	3.7505
12.432	3.8037
12.2557	3.8723
12.0843	3.9814
11.9176	4.124
11.7555	4.3127
11.5977	4.418
11.444	4.4194
11.2944	4.4328
11.1487	4.4883
11.0067	4.5644
10.8682	4.6699
10.7332	4.8205
10.6015	4.9526
10.473	5.1128
10.3476	5.2334
10.2251	5.5903
10.1056	4.8005
9.98873	5.5452
9.87458	5.8921
9.763	6.3056
9.65392	6.8855
9.54724	7.779
9.44291	9.581
9.34082	12.4421
9.24091	15.0334
9.14312	18.1318
9.04739	20.7546
8.95363	22.548
8.8618	23.6801
8.77183	23.2431
8.68368	18.7485
8.59727	15.6047
8.51257	13.6013
8.42951	10.7165
8.34807	8.2683
8.26819	7.49
8.18981	8.6716
8.11292	9.5227
8.03745	7.0439
7.96337	3.9504
7.89064	1.5281
7.81924	0.7463
7.74911	0.7939
7.68023	0.9695
7.61256	1.1494
7.54608	1.3142
7.48074	1.4658
7.41653	1.6025
7.35341	1.7529
7.29136	1.9304
7.23034	2.1706
7.17033	2.3896
7.11132	2.5903
7.05327	2.8479
6.99616	2.9624
6.93996	2.9477
6.88467	3.1982
6.83024	3.3396
6.77667	3.4495
6.72393	3.4932
6.67201	3.4507
6.62089	3.1985
6.57054	2.8179
6.52095	2.6333
6.4721	2.6357
6.42398	2.6951
6.37657	2.8498
6.32986	2.9807
6.28382	2.7527
6.23845	2.7949
6.19373	2.9646
6.14965	3.1372
6.10619	3.5547
6.06334	3.9341
6.02109	4.0669
5.97942	4.1689
5.93832	4.2287
5.89778	4.2231
5.8578	4.1868
5.81835	4.1912
5.77943	4.2744
5.74103	4.3274
5.70314	4.3557
5.66574	4.394
5.62883	4.4575
5.5924	4.5115
5.55644	4.5393
5.52093	4.5698
5.48588	4.615
5.45127	4.6741
5.41709	4.7558
5.38334	4.8782
5.35	4.9851
5.31708	5.0576
5.28456	5.0886
5.25243	5.0928
5.2207	5.0957
5.18934	5.0261
5.15836	5.0034
5.12775	4.7886
5.09749	3.8437
5.0676	4.1484
5.03805	4.7302
5.00884	4.6343
4.97998	4.4355
4.95144	4.0779
4.92322	3.6221
4.89533	3.2248
4.86775	3.1023
4.84048	3.0395
4.81351	3.082
4.78684	3.0901
4.76047	3.1177
4.73439	3.1409
4.70859	3.1028
4.68306	3.0947
4.65782	3.1142
4.63284	3.196
4.60814	3.2004
4.58369	3.2102
4.5595	3.186
4.53557	3.2224
4.51188	3.2966
4.48845	3.3645
4.46525	3.3872
4.44229	3.4163
4.41957	3.4639
4.39708	3.5395
4.37481	3.5969
4.35277	3.6684
4.33096	3.7248
4.30935	3.6987
4.28797	3.6511
4.26679	3.6704
4.24583	3.7363
4.22506	3.8596
4.2045	4.052
4.18414	4.3562
4.16398	4.7783
4.14401	5.0796
4.12423	5.3103
4.10464	5.4988
4.08523	5.647
4.066	5.7903
4.04696	5.8996
4.02809	5.9768
4.0094	6.0447
3.99088	6.0683
3.97253	6.1096
3.95435	6.1609
3.93634	6.2239
3.91848	6.2805
3.90079	6.2795
3.88326	6.2092
3.86589	6.2495
3.84867	6.3323
3.8316	6.3952
3.81468	6.4768
3.79791	6.5058
3.78129	6.5307
3.76482	6.5456
3.74848	6.5405
3.73229	6.5588
3.71624	6.573
3.70032	6.5964
3.68454	6.603
3.6689	6.6218
3.65338	6.6284
3.638	6.636
3.62275	6.6328
3.60762	6.6365
3.59262	6.6462
3.57775	6.6616
3.56299	6.6643
3.54836	6.6758
3.53385	6.675
3.51945	6.6806
3.50517	6.6775
3.49101	6.6987
3.47696	6.7173
3.46303	6.7239
3.4492	6.7339
3.43549	6.7451
3.42188	6.7378
3.40838	6.7363
3.39499	6.6797
3.38171	6.7749
3.36852	6.7876
3.35544	6.789
3.34246	6.7651
3.32958	6.7055
3.3168	6.5488
3.30411	6.3718
3.29153	6.4446
3.27903	6.4834
3.26664	6.5547
3.25433	6.5825
3.24212	6.6372
3.23	6.6128
3.21797	6.5591
3.20603	6.53
3.19418	6.5434
3.18241	6.542
3.17074	6.5515
3.15914	6.5722
3.14763	6.5779
3.13621	6.6011
3.12487	6.604
3.11361	6.5918
3.10243	6.574
3.09133	6.5981
3.0803	6.6221
3.06936	6.6338
3.0585	6.6372
3.04771	6.6482
3.037	6.6543
3.02636	6.6806
3.0158	6.6889
3.00531	6.7038
2.99489	6.7217
2.98454	6.7383
2.97427	6.7363
2.96407	6.7676
2.95393	6.7641
2.94387	6.7715
2.93387	6.7798
2.92394	6.7886
2.91408	6.8013
2.90429	6.8149
2.89456	6.8139
2.88489	6.8288
2.87529	6.8315
2.86576	6.8545
2.85628	6.8652
2.84687	6.8769
2.83752	6.9057
2.82823	6.9516
2.81901	6.9585
2.80984	6.979
2.80073	6.9958
2.79168	7.0254
2.78269	7.0222
2.77376	7.0019
2.76488	7.0434
2.75606	7.0525
2.7473	7.0864
2.73859	7.0984
2.72994	7.1116
2.72134	7.1316
2.7128	7.1521
2.70431	7.1245
2.69587	7.1518
2.68748	7.1694
2.67915	7.1533
2.67087	7.1777
2.66264	7.1836
2.65446	7.166
2.64633	7.144
2.63825	7.123
2.63021	7.1399
2.62223	7.123
2.6143	7.1474
2.60641	7.105
2.59857	7.1203
2.59078	7.0928
2.58304	7.0932
2.57534	7.0669
2.56768	7.0698
2.56008	7.0659
2.55251	7.0351
2.54499	7.0539
2.53752	7.0107
2.53009	7.0068
2.5227	7.0129
2.51536	6.9768
2.50806	6.9604
2.5008	6.9807
2.49358	6.9553
2.4864	6.9297
2.47927	6.9114
2.47218	6.9231
2.46512	6.9184
2.45811	6.9162
2.45114	6.8901
2.4442	6.8926
2.43731	6.853
2.43045	6.8423
2.42363	6.8638
2.41685	6.8681
2.41011	6.8198
2.40341	6.8315
2.39674	6.8032
2.39011	6.8388
2.38352	6.812
2.37696	6.7988
2.37044	6.8105
2.36395	6.8193
2.35751	6.834
2.35109	6.8208
2.34471	6.7998
2.33836	6.7851
2.33205	6.8096
2.32578	6.79
2.31953	6.7715
2.31332	6.8056
2.30714	6.8071
2.301	6.7563
2.29489	6.8247
2.28881	6.8457
2.28276	6.8408
2.27675	6.8047
2.27076	6.7832
2.26481	6.7773
2.25889	6.8266
2.253	6.854
2.24714	6.8496
2.24131	6.8506
2.23551	6.8847
2.22974	6.8945
2.224	6.8984
2.21829	6.9004
2.21261	6.9634
2.20696	6.9824
2.20134	6.9614
2.19574	6.9223
2.19018	6.9868
2.18464	6.9848
2.17913	6.9844
2.17365	7.0176
2.16819	7.0532
2.16277	7.0571
2.15737	7.0703
2.15199	7.1079
2.14665	7.1391
2.14133	7.1118
2.13603	7.1001
2.13077	7.147
2.12552	7.2153
2.12031	7.188
2.11512	7.2314
2.10995	7.1982
2.10481	7.2305
2.0997	7.3027
2.09461	7.3379
2.08954	7.334
2.0845	7.2949
2.07948	7.4111
