Name: Grossular Ca3Al2(Si04)3
Type: Mineral
Class: Silicates
Subclass: Nesosilicates (Isolated Tetrahedra); Garnet Group
Particle Size: Solid (fracture surface)
Sample No.: grossul.2
Owner: JHU
Wavelength Range: IR
Origin: Sample from Pear Gillis Farm, Beach Glen, Buncombe Co.,
Description: The sample was a spherical cluster of small crystals
Measurement: Bidirectional reflectance
X Units: Wavelength (micrometers)
Y Units: Reflectance (percent)
wavelength	value
25.0442	22.8203
24.3388	27.5165
23.6719	37.371
23.0407	50.4784
22.4422	53.9071
21.8741	51.4823
21.334	52.0741
20.8199	56.3661
20.33	53.9837
19.8627	50.4208
19.4163	42.588
18.9896	19.7766
18.5812	34.9591
18.19	46.827
17.815	43.1974
17.4551	31.9159
17.1094	14.2055
16.7772	6.8244
16.4576	10.6753
16.15	13.5634
15.8537	6.6133
15.568	8.3379
15.2925	9.9524
15.0265	10.927
14.7697	11.9765
14.5214	12.6074
14.2814	13.3076
14.0492	14.1399
13.8244	14.7085
13.6067	15.4423
13.3957	16.4799
13.1912	17.166
12.9929	18.1782
12.8004	19.3642
12.6135	21.0659
12.432	23.4772
12.2557	27.3491
12.0843	34.415
11.9176	40.9789
11.7555	38.4101
11.5977	46.2367
11.444	38.9374
11.2944	20.9706
11.1487	22.3359
11.0067	39.3927
10.8682	52.7455
10.7332	56.4398
10.6015	57.6068
10.473	58.097
10.3476	57.2147
10.2251	54.7655
10.1056	51.8236
9.98873	48.0966
9.87458	45.5817
9.763	40.402
9.65392	32.7682
9.54724	23.4907
9.44291	11.3767
9.34082	2.3306
9.24091	2.3574
9.14312	3.3889
9.04739	4.3174
8.95363	4.9949
8.8618	5.4634
8.77183	5.9287
8.68368	6.3718
8.59727	6.7549
8.51257	7.0898
8.42951	7.3581
8.34807	7.6418
8.26819	7.8806
8.18981	8.1328
8.11292	8.3257
8.03745	8.5759
7.96337	8.7842
7.89064	8.9863
7.81924	9.2112
7.74911	9.4043
7.68023	9.6025
7.61256	9.7698
7.54608	9.9502
7.48074	10.0107
7.41653	10.1648
7.35341	10.239
7.29136	10.3545
7.23034	10.4963
7.17033	10.519
7.11132	10.6582
7.05327	10.6137
6.99616	10.7571
6.93996	10.8938
6.88467	10.9358
6.83024	10.9384
6.77667	11.1098
6.72393	11.0676
6.67201	11.2622
6.62089	11.4214
6.57054	11.3293
6.52095	11.4087
6.4721	11.6059
6.42398	11.5559
6.37657	11.6487
6.32986	11.8227
6.28382	11.8247
6.23845	11.8654
6.19373	11.8564
6.14965	11.9812
6.10619	12.0595
6.06334	12.0905
6.02109	11.9231
5.97942	11.9804
5.93832	11.6848
5.89778	11.7324
5.8578	11.9277
5.81835	11.8969
5.77943	11.7964
5.74103	11.8828
5.70314	11.9956
5.66574	12.0205
5.62883	12.0481
5.5924	12.0705
5.55644	12.07
5.52093	12.144
5.48588	12.1533
5.45127	12.2392
5.41709	12.2871
5.38334	12.2976
5.35	12.2873
5.31708	12.3574
5.28456	12.3879
5.25243	12.4101
5.2207	12.4167
5.18934	12.4912
5.15836	12.5058
5.12775	12.5227
5.09749	12.5539
5.0676	12.5737
5.03805	12.5927
5.00884	12.6181
4.97998	12.6157
4.95144	12.6623
4.92322	12.6616
4.89533	12.6831
4.86775	12.6972
4.84048	12.6999
4.81351	12.7246
4.78684	12.7226
4.76047	12.748
4.73439	12.7641
4.70859	12.7722
4.68306	12.7905
4.65782	12.8112
4.63284	12.8386
4.60814	12.8584
4.58369	12.8774
4.5595	12.8935
4.53557	12.8991
4.51188	12.9062
4.48845	12.9157
4.46525	12.9336
4.44229	12.947
4.41957	12.9467
4.39708	12.9572
4.37481	12.9555
4.35277	12.893
4.33096	12.7729
4.30935	12.6176
4.28797	12.5393
4.26679	12.5141
4.24583	12.3847
4.22506	12.498
4.2045	12.8486
4.18414	12.9795
4.16398	12.9978
4.14401	13.0017
4.12423	12.9992
4.10464	13.0254
4.08523	13.0112
4.066	13.0354
4.04696	13.0254
4.02809	13.0307
4.0094	13.0442
3.99088	13.0461
3.97253	13.0549
3.95435	13.0525
3.93634	13.0683
3.91848	13.07
3.90079	13.0605
3.88326	13.073
3.86589	13.0493
3.84867	13.0547
3.8316	13.0464
3.81468	13.0478
3.79791	13.0483
3.78129	13.0459
3.76482	13.0459
3.74848	13.0478
3.73229	13.0254
3.71624	13.0319
3.70032	13.0307
3.68454	13.02
3.6689	12.9941
3.65338	13.0185
3.638	13.0044
3.62275	13.0039
3.60762	13.0017
3.59262	13.0009
3.57775	12.9873
3.56299	12.9853
3.54836	12.9863
3.53385	12.9839
3.51945	12.9843
3.50517	12.9848
3.49101	12.9592
3.47696	12.9699
3.46303	12.959
3.4492	12.9555
3.43549	12.9536
3.42188	12.948
3.40838	12.9331
3.39499	12.8852
3.38171	12.8882
3.36852	12.8798
3.35544	12.8593
3.34246	12.8418
3.32958	12.8383
3.3168	12.8208
3.30411	12.8105
3.29153	12.8276
3.27903	12.789
3.26664	12.7837
3.25433	12.7783
3.24212	12.7683
3.23	12.7578
3.21797	12.739
3.20603	12.7199
3.19418	12.7129
3.18241	12.7016
3.17074	12.6855
3.15914	12.6618
3.14763	12.6694
3.13621	12.6709
3.12487	12.6757
3.11361	12.6499
3.10243	12.6394
3.09133	12.6174
3.0803	12.6145
3.06936	12.602
3.0585	12.602
3.04771	12.5852
3.037	12.5551
3.02636	12.5617
3.0158	12.5175
3.00531	12.5236
2.99489	12.5205
2.98454	12.4736
2.97427	12.4758
2.96407	12.4541
2.95393	12.4292
2.94387	12.4062
2.93387	12.3921
2.92394	12.3442
2.91408	12.3252
2.90429	12.3359
2.89456	12.2961
2.88489	12.2602
2.87529	12.257
2.86576	12.2483
2.85628	12.1816
2.84687	12.1811
2.83752	12.1289
2.82823	12.1045
2.81901	12.1118
2.80984	12.0508
2.80073	12.1596
2.79168	12.008
2.78269	11.9892
2.77376	12.0188
2.76488	12.0429
2.75606	11.8208
2.7473	11.9279
2.73859	12.122
2.72994	11.9189
2.72134	11.8535
2.7128	11.8779
2.70431	11.9253
2.69587	11.8794
2.68748	12.0205
2.67915	11.9341
2.67087	11.9355
2.66264	12.1308
2.65446	12.1084
2.64633	12.0376
2.63825	12.0737
2.63021	12.0957
2.62223	12.0097
2.6143	12.1274
2.60641	12.0097
2.59857	11.9824
2.59078	12.0332
2.58304	12.0332
2.57534	12.0532
2.56768	12.0224
2.56008	12.0332
2.55251	11.8925
2.54499	11.9111
2.53752	11.873
2.53009	11.8799
2.5227	11.8681
2.51536	11.8642
2.50806	11.8501
2.5008	11.8154
2.49358	11.8208
2.4864	11.8203
2.47927	11.7705
2.47218	11.7988
2.46512	11.7968
2.45811	11.7646
2.45114	11.7485
2.4442	11.7304
2.43731	11.6899
2.43045	11.748
2.42363	11.6552
2.41685	11.6626
2.41011	11.6523
2.40341	11.643
2.39674	11.645
2.39011	11.5766
2.38352	11.5429
2.37696	11.5224
2.37044	11.5102
2.36395	11.5141
2.35751	11.5049
2.35109	11.4868
2.34471	11.4458
2.33836	11.4648
2.33205	11.4165
2.32578	11.4731
2.31953	11.459
2.31332	11.4258
2.30714	11.4023
2.301	11.373
2.29489	11.3828
2.28881	11.3584
2.28276	11.373
2.27675	11.3012
2.27076	11.3437
2.26481	11.3066
2.25889	11.2407
2.253	11.2778
2.24714	11.249
2.24131	11.2412
2.23551	11.2734
2.22974	11.1689
2.224	11.25
2.21829	11.1933
2.21261	11.2285
2.20696	11.2373
2.20134	11.164
2.19574	11.1631
2.19018	11.1425
2.18464	11.2412
2.17913	11.1875
2.17365	11.1826
2.16819	11.1758
2.16277	11.1357
2.15737	11.0771
2.15199	11.1728
2.14665	11.1191
2.14133	11.1269
2.13603	11.1728
2.13077	11.1728
2.12552	11.1377
2.12031	11.1455
2.11512	11.1172
2.10995	11.1572
2.10481	11.1064
2.0997	11.1523
2.09461	11.1816
2.08954	11.1562
2.0845	11.2656
2.07948	11.165
