Name: Labradorite (Na,Ca)Al(Al,Si)Si2O8
Type: Mineral
Class: Silicates
Subclass: Tectosilicates (Framework Silicates); (Feldspar Group)
Particle Size: Fine  (0-74 micrometers)
Sample No.: labrador.1
Owner: JHU
Wavelength Range: IR
Origin: Lake County, Oregon, acquired from the Smithsonian (sample
Description: The sample consisted of a 2 cm x 1 cm x 0.2 cm, 0.536 g
Measurement: Bidirectional reflectance
X Units: Wavelength (micrometers)
Y Units: Reflectance (percent)
wavelength	value
25.0442	2.7168
24.3388	2.4766
23.6719	2.4341
23.0407	2.4983
22.4422	2.0649
21.8741	2.0127
21.334	2.0825
20.8199	1.9563
20.33	2.009
19.8627	2.168
19.4163	2.3096
18.9896	2.331
18.5812	2.5742
18.19	2.2998
17.815	2.1504
17.4551	2.3564
17.1094	2.3935
16.7772	2.5151
16.4576	2.5222
16.15	2.3171
15.8537	2.3501
15.568	2.1689
15.2925	1.6824
15.0265	1.3083
14.7697	1.3953
14.5214	1.3904
14.2814	1.4421
14.0492	1.47
13.8244	1.5039
13.6067	1.4917
13.3957	1.4961
13.1912	1.4915
12.9929	1.4871
12.8004	1.5508
12.6135	1.7722
12.432	2.261
12.2557	2.8562
12.0843	2.7605
11.9176	2.4319
11.7555	2.2246
11.5977	2.1948
11.444	2.1753
11.2944	2.1653
11.1487	2.1775
11.0067	2.251
10.8682	2.3274
10.7332	2.3584
10.6015	2.3848
10.473	2.3774
10.3476	2.292
10.2251	2.2532
10.1056	2.2812
9.98873	2.3132
9.87458	2.2568
9.763	2.199
9.65392	2.0671
9.54724	1.9778
9.44291	1.908
9.34082	1.8332
9.24091	1.8061
9.14312	1.8726
9.04739	1.9897
8.95363	2.165
8.8618	2.2942
8.77183	2.3953
8.68368	2.4944
8.59727	2.5752
8.51257	2.6511
8.42951	2.8076
8.34807	3.0715
8.26819	3.072
8.18981	2.3144
8.11292	1.3406
8.03745	0.6882
7.96337	0.563
7.89064	0.7871
7.81924	1.1648
7.74911	1.6091
7.68023	2.0832
7.61256	2.51
7.54608	2.8987
7.48074	3.2236
7.41653	3.5437
7.35341	3.8306
7.29136	4.0801
7.23034	4.3093
7.17033	4.5127
7.11132	4.6951
7.05327	4.8603
6.99616	4.9975
6.93996	5.1033
6.88467	5.1882
6.83024	5.2356
6.77667	5.3042
6.72393	5.3657
6.67201	5.3818
6.62089	5.4092
6.57054	5.4404
6.52095	5.4658
6.4721	5.4487
6.42398	5.4333
6.37657	5.4094
6.32986	5.3816
6.28382	5.3757
6.23845	5.3808
6.19373	5.4038
6.14965	5.4148
6.10619	5.4543
6.06334	5.4961
6.02109	5.5425
5.97942	5.6189
5.93832	5.7451
5.89778	5.9128
5.8578	6.0913
5.81835	6.2644
5.77943	6.4407
5.74103	6.604
5.70314	6.7622
5.66574	6.895
5.62883	7.0119
5.5924	7.1489
5.55644	7.282
5.52093	7.406
5.48588	7.539
5.45127	7.6872
5.41709	7.8586
5.38334	8.0686
5.35	8.2893
5.31708	8.5276
5.28456	8.7463
5.25243	8.9739
5.2207	9.2185
5.18934	9.5046
5.15836	9.8198
5.12775	10.134
5.09749	10.4414
5.0676	10.7519
5.03805	11.0239
5.00884	11.2763
4.97998	11.4817
4.95144	11.6577
4.92322	11.8147
4.89533	11.9687
4.86775	12.1045
4.84048	12.2326
4.81351	12.3752
4.78684	12.531
4.76047	12.6811
4.73439	12.8647
4.70859	13.0554
4.68306	13.2768
4.65782	13.5315
4.63284	13.7966
4.60814	14.0842
4.58369	14.3764
4.5595	14.6281
4.53557	14.8796
4.51188	15.1162
4.48845	15.3459
4.46525	15.5605
4.44229	15.7507
4.41957	15.9289
4.39708	16.1025
4.37481	16.2844
4.35277	16.4462
4.33096	16.6269
4.30935	16.791
4.28797	16.9841
4.26679	17.1684
4.24583	17.3215
4.22506	17.4548
4.2045	17.5632
4.18414	17.653
4.16398	17.7211
4.14401	17.7482
4.12423	17.7832
4.10464	17.8081
4.08523	17.8486
4.066	17.8762
4.04696	17.8989
4.02809	17.9196
4.0094	17.9306
3.99088	17.946
3.97253	17.9604
3.95435	17.9885
3.93634	18.009
3.91848	18.031
3.90079	18.0739
3.88326	18.0727
3.86589	18.0935
3.84867	18.0947
3.8316	18.1018
3.81468	18.0993
3.79791	18.123
3.78129	18.1245
3.76482	18.1135
3.74848	18.1208
3.73229	18.1125
3.71624	18.0979
3.70032	18.0805
3.68454	18.0576
3.6689	18.0463
3.65338	18.0251
3.638	18.0158
3.62275	18.0065
3.60762	17.9853
3.59262	17.9672
3.57775	17.9296
3.56299	17.8718
3.54836	17.8225
3.53385	17.7009
3.51945	17.4619
3.50517	16.8032
3.49101	16.9731
3.47696	17.0761
3.46303	17.1132
3.4492	16.906
3.43549	16.5874
3.42188	15.9392
3.40838	16.0363
3.39499	16.5671
3.38171	16.6115
3.36852	16.8452
3.35544	17.2006
3.34246	17.3774
3.32958	17.4458
3.3168	17.4858
3.30411	17.5102
3.29153	17.5178
3.27903	17.4895
3.26664	17.4548
3.25433	17.4108
3.24212	17.395
3.23	17.3645
3.21797	17.3327
3.20603	17.2937
3.19418	17.2578
3.18241	17.2282
3.17074	17.1904
3.15914	17.1528
3.14763	17.0996
3.13621	17.0351
3.12487	16.9958
3.11361	16.9743
3.10243	16.9563
3.09133	16.9209
3.0803	16.8811
3.06936	16.8569
3.0585	16.7756
3.04771	16.771
3.037	16.7482
3.02636	16.7338
3.0158	16.6906
3.00531	16.6374
2.99489	16.6552
2.98454	16.6355
2.97427	16.6225
2.96407	16.6118
2.95393	16.6098
2.94387	16.625
2.93387	16.6274
2.92394	16.6484
2.91408	16.6777
2.90429	16.7099
2.89456	16.7592
2.88489	16.7866
2.87529	16.8212
2.86576	16.8642
2.85628	16.9336
2.84687	17.0004
2.83752	17.0512
2.82823	17.0786
2.81901	17.1508
2.80984	17.2299
2.80073	17.289
2.79168	17.3625
2.78269	17.4389
2.77376	17.5195
2.76488	17.5737
2.75606	17.6865
2.7473	17.809
2.73859	17.8662
2.72994	17.9555
2.72134	17.9697
2.7128	18.1928
2.70431	18.2192
2.69587	18.3232
2.68748	18.458
2.67915	18.5625
2.67087	18.5693
2.66264	18.5935
2.65446	18.6027
2.64633	18.6069
2.63825	18.5832
2.63021	18.5971
2.62223	18.5734
2.6143	18.5813
2.60641	18.5551
2.59857	18.572
2.59078	18.5578
2.58304	18.5815
2.57534	18.5429
2.56768	18.5529
2.56008	18.5449
2.55251	18.5192
2.54499	18.5258
2.53752	18.5009
2.53009	18.4834
2.5227	18.4589
2.51536	18.4191
2.50806	18.4555
2.5008	18.4243
2.49358	18.385
2.4864	18.3789
2.47927	18.3898
2.47218	18.3334
2.46512	18.3125
2.45811	18.3129
2.45114	18.3266
2.4442	18.2551
2.43731	18.2629
2.43045	18.2583
2.42363	18.228
2.41685	18.2543
2.41011	18.227
2.40341	18.1926
2.39674	18.1691
2.39011	18.1469
2.38352	18.102
2.37696	18.1027
2.37044	18.135
2.36395	18.0927
2.35751	18.0744
2.35109	18.0459
2.34471	18.051
2.33836	18.0078
2.33205	17.9836
2.32578	17.9443
2.31953	17.956
2.31332	17.9221
2.30714	17.8916
2.301	17.9111
2.29489	17.9152
2.28881	17.8742
2.28276	17.8501
2.27675	17.875
2.27076	17.8618
2.26481	17.8491
2.25889	17.8505
2.253	17.8017
2.24714	17.8115
2.24131	17.7666
2.23551	17.8266
2.22974	17.7534
2.224	17.7504
2.21829	17.77
2.21261	17.728
2.20696	17.7353
2.20134	17.7431
2.19574	17.767
2.19018	17.6884
2.18464	17.7016
2.17913	17.705
2.17365	17.6601
2.16819	17.7099
2.16277	17.6875
2.15737	17.7373
2.15199	17.6547
2.14665	17.6303
2.14133	17.6616
2.13603	17.7207
2.13077	17.6835
2.12552	17.6821
2.12031	17.6621
2.11512	17.6718
2.10995	17.6669
2.10481	17.6743
2.0997	17.621
2.09461	17.7036
2.08954	17.7207
2.0845	17.706
2.07948	17.6665
