Name: Anhydrite CaSO4
Type: Mineral
Class: Sulfates
Particle Size: Solid
Sample No.: anhydrite.1
Owner: JHU
Wavelength Range: IR
Origin: Sample from Champo, Isere, France, via the Smithsonian
Description: The sample was a 3 cm x 3 cm x 4 cm, white, granular
Measurement: Bidirectional reflectance
X Units: Wavelength (micrometers)
Y Units: Reflectance (percent)
wavelength	value
25.044	0.7681
24.339	0.9819
23.672	1.0959
23.041	1.3906
22.442	1.3169
21.874	1.4102
21.334	1.5903
20.82	1.6621
20.33	1.7248
19.863	1.7036
19.416	1.6418
18.99	1.7529
18.581	1.8242
18.19	1.8994
17.815	2.0356
17.455	2.1792
17.109	2.5146
16.777	6.1987
16.458	3.2825
16.15	3.5964
15.854	2.5537
15.568	1.8269
15.292	2.1685
15.027	2.9228
14.77	4.6977
14.521	5.6443
14.281	4.0339
14.049	0.7676
13.824	1.0469
13.607	1.2266
13.396	1.3547
13.191	1.4097
12.993	1.4707
12.8	1.5256
12.614	1.5867
12.432	1.6067
12.256	1.6462
12.084	1.6802
11.918	1.707
11.755	1.7314
11.598	1.7805
11.444	1.8003
11.294	1.8369
11.149	1.8455
11.007	1.8733
10.868	1.9058
10.733	1.9692
10.602	2.0154
10.473	2.0432
10.348	2.1013
10.225	2.1545
10.106	2.2241
9.9887	2.2793
9.8746	2.3684
9.763	2.4324
9.6539	2.5608
9.5472	2.7034
9.4429	2.9197
9.3408	3.2436
9.2409	3.7612
9.1431	5.1838
9.0474	7.0471
8.9536	8.1838
8.8618	9.083
8.7718	10.226
8.6837	11.902
8.5973	12.102
8.5126	12.094
8.4295	12.033
8.3481	12.432
8.2682	11.517
8.1898	10.099
8.1129	9.9621
8.0374	8.4936
7.9634	6.4172
7.8906	3.9006
7.8192	2.1301
7.7491	0.6938
7.6802	0.1543
7.6126	0.239
7.5461	0.3379
7.4807	0.4099
7.4165	0.5005
7.3534	0.5571
7.2914	0.6042
7.2303	0.644
7.1703	0.6968
7.1113	0.729
7.0533	0.7512
6.9962	0.7957
6.94	0.8284
6.8847	0.8635
6.8302	0.8982
6.7767	0.9338
6.7239	0.9543
6.672	0.9846
6.6209	1.0171
6.5705	1.012
6.5209	1.0044
6.4721	1.0073
6.424	1.0337
6.3766	1.0688
6.3299	1.0859
6.2838	1.1318
6.2385	1.1211
6.1937	1.1296
6.1496	1.1421
6.1062	1.0898
6.0633	1.1165
6.0211	1.1272
5.9794	1.1555
5.9383	1.165
5.8978	1.1357
5.8578	1.1951
5.8184	1.2185
5.7794	1.1799
5.741	1.2185
5.7031	1.2363
5.6657	1.2854
5.6288	1.3037
5.5924	1.2976
5.5564	1.2976
5.5209	1.3147
5.4859	1.3415
5.4513	1.3547
5.4171	1.3887
5.3833	1.426
5.35	1.4473
5.3171	1.4663
5.2846	1.4814
5.2524	1.49
5.2207	1.5144
5.1893	1.5322
5.1584	1.5469
5.1277	1.5469
5.0975	1.5435
5.0676	1.5327
5.038	1.5359
5.0088	1.5266
4.98	1.5225
4.9514	1.5037
4.9232	1.4028
4.8953	1.5029
4.8678	1.5054
4.8405	1.4924
4.8135	1.4622
4.7868	1.4119
4.7605	1.3555
4.7344	1.2764
4.7086	1.207
4.6831	1.1865
4.6578	1.1794
4.6328	1.198
4.6081	1.2068
4.5837	1.2249
4.5595	1.2332
4.5356	1.2302
4.5119	1.2268
4.4884	1.2356
4.4652	1.2261
4.4423	1.2317
4.4196	1.2351
4.3971	1.2598
4.3748	1.2634
4.3528	1.2598
4.331	1.2666
4.3094	1.2827
4.288	1.2771
4.2668	1.2866
4.2458	1.3408
4.2251	1.3704
4.2045	1.3528
4.1841	1.3816
4.164	1.4924
4.144	1.5864
4.1242	1.6426
4.1046	1.6636
4.0852	1.7026
4.066	1.7256
4.047	1.7602
4.0281	1.7839
4.0094	1.8154
3.9909	1.8335
3.9725	1.8533
3.9544	1.8845
3.9363	1.8977
3.9185	1.9187
3.9008	1.9231
3.8833	1.9573
3.8659	1.9878
3.8487	2.0039
3.8316	2.0151
3.8147	2.0181
3.7979	1.9822
3.7813	2.0056
3.7648	2.0388
3.7485	2.072
3.7323	2.0881
3.7162	2.1077
3.7003	2.0959
3.6845	2.0891
3.6689	2.1106
3.6534	2.1011
3.638	2.1016
3.6227	2.113
3.6076	2.1228
3.5926	2.1265
3.5777	2.1301
3.563	2.1206
3.5484	2.1196
3.5338	2.1101
3.5195	2.1101
3.5052	2.0928
3.491	2.0923
3.477	2.0876
3.463	2.0906
3.4492	2.0852
3.4355	2.0911
3.4219	2.0664
3.4084	2.0857
3.395	2.094
3.3817	2.082
3.3685	2.0845
3.3554	2.0818
3.3425	2.0676
3.3296	2.0652
3.3168	2.0356
3.3041	2.0303
3.2915	2.0078
3.279	1.9914
3.2666	1.9783
3.2543	1.9573
3.2421	1.9487
3.23	1.9228
3.218	1.9089
3.206	1.8933
3.1942	1.8525
3.1824	1.8047
3.1707	1.7976
3.1591	1.7866
3.1476	1.7859
3.1362	1.7507
3.1249	1.7559
3.1136	1.7415
3.1024	1.7212
3.0913	1.6785
3.0803	1.655
3.0694	1.6584
3.0585	1.6592
3.0477	1.6538
3.037	1.6685
3.0264	1.6584
3.0158	1.6455
3.0053	1.6306
2.9949	1.6306
2.9845	1.6274
2.9743	1.6213
2.9641	1.6382
2.9539	1.6558
2.9439	1.6851
2.9339	1.7866
2.9239	1.8157
2.9141	1.7964
2.9043	1.7468
2.8946	1.7275
2.8849	1.6873
2.8753	1.656
2.8658	1.6179
2.8563	1.6262
2.8469	1.6492
2.8375	1.6826
2.8282	1.7095
2.819	1.7256
2.8098	1.748
2.8007	1.7476
2.7917	1.7766
2.7827	1.7891
2.7738	1.8088
2.7649	1.8586
2.7561	1.9241
2.7473	2.0222
2.7386	2.1108
2.7299	2.2046
2.7213	2.25
2.7128	2.3132
2.7043	2.3562
2.6959	2.4131
2.6875	2.436
2.6791	2.4695
2.6709	2.4897
2.6626	2.5049
2.6545	2.5122
2.6463	2.5098
2.6382	2.5168
2.6302	2.5185
2.6222	2.5466
2.6143	2.5327
2.6064	2.5542
2.5986	2.5334
2.5908	2.5679
2.583	2.5601
2.5753	2.5488
2.5677	2.5762
2.5601	2.5459
2.5525	2.5388
2.545	2.5496
2.5375	2.5493
2.5301	2.5395
2.5227	2.5552
2.5154	2.5288
2.5081	2.5557
2.5008	2.5395
2.4936	2.5215
2.4864	2.5427
2.4793	2.5388
2.4722	2.5242
2.4651	2.543
2.4581	2.563
2.4511	2.5542
2.4442	2.5559
2.4373	2.5732
2.4305	2.5845
2.4236	2.5757
2.4169	2.6113
2.4101	2.6177
2.4034	2.6426
2.3967	2.645
2.3901	2.6851
2.3835	2.7141
2.377	2.7407
2.3704	2.7363
2.364	2.7519
2.3575	2.7551
2.3511	2.7737
2.3447	2.7817
2.3384	2.7734
2.3321	2.7959
2.3258	2.7915
2.3195	2.7685
2.3133	2.7903
2.3071	2.813
2.301	2.803
2.2949	2.8032
2.2888	2.7873
2.2828	2.832
2.2767	2.8008
2.2708	2.7903
2.2648	2.8047
2.2589	2.8069
2.253	2.8127
2.2471	2.8147
2.2413	2.8257
2.2355	2.8081
2.2297	2.8125
2.224	2.7949
2.2183	2.8184
2.2126	2.8081
2.207	2.8452
2.2013	2.8267
2.1957	2.8694
2.1902	2.8372
2.1846	2.8594
2.1791	2.8538
2.1736	2.8379
2.1682	2.8437
2.1628	2.9224
2.1574	2.8677
2.152	2.8799
2.1466	2.9231
2.1413	2.9209
2.136	2.895
2.1308	2.9277
2.1255	2.9556
2.1203	2.9785
2.1151	2.9355
2.11	2.9856
2.1048	2.9697
2.0997	2.9758
2.0946	3.021
2.0895	2.9983
2.0845	3.0244
2.0795	3.0334
