Name: Ferruginous Sandstone
Type: Rocks
Class: Sedimentary
Subclass: Sandstone
Particle Size: 0 - 75 Micrometers
Sample No.: sandstone.4
Owner: JHU
Wavelength Range: All
Origin: Sample No. 452,  The Hunt and Salisbury Collection at the U.S.
Description: Poorly sorted, low porosity sandstone containing
Measurement: Directional (10 Degree) Hemispherical Reflectance
X Units: Wavelength (micrometers)
Y Units: Reflectance (percent)
wavelength	value
14.983	11.117
14.645	9.1544
14.321	4.3849
14.011	3.9217
13.715	11.505
13.43	11.491
13.158	8.8903
12.896	5.6163
12.644	4.7204
12.402	4.7126
12.169	7.3477
11.945	11.388
11.729	13.03
11.52	9.251
11.319	7.7751
11.125	13.588
10.937	13.368
10.755	12.86
10.58	11.957
10.41	10.891
10.245	9.3604
10.086	7.7737
9.931	7.06
9.781	6.5023
9.636	5.8749
9.495	6.2446
9.358	9.6794
9.225	11.052
9.095	10.459
8.969	10.51
8.847	10.684
8.727	10.101
8.612	7.8803
8.499	10.278
8.389	10.747
8.281	12.497
8.177	16.258
8.075	15.325
7.976	14.823
7.879	13.279
7.784	13.062
7.692	13.374
7.601	11.989
7.513	11.762
7.427	10.632
7.343	8.6258
7.261	5.9107
7.18	4.6118
7.102	5.2009
7.025	5.0544
6.949	4.8033
6.875	4.8656
6.803	4.9035
6.733	5.0191
6.663	5.6348
6.596	6.6891
6.529	7.9312
6.464	10.513
6.4	10.473
6.338	7.6004
6.276	5.6069
6.216	4.7474
6.157	5.7186
6.099	7.9279
6.042	9.0236
5.986	9.1553
5.931	8.6765
5.878	11.093
5.825	13.194
5.773	14.533
5.722	16.004
5.672	16.116
5.623	12.736
5.574	5.5488
5.527	12.606
5.48	18.036
5.434	19.408
5.389	13.877
5.345	11.142
5.301	12.216
5.258	15.538
5.215	21.633
5.174	22.842
5.133	22.309
5.093	21.367
5.053	20.231
5.014	19.669
4.975	21.795
4.937	26.074
4.9	31.989
4.863	38.532
4.827	41.03
4.791	42.273
4.756	43.285
4.721	42.548
4.687	38.402
4.654	39.442
4.62	43.404
4.588	44.905
4.556	45.001
4.524	43.822
4.492	42.032
4.461	42.064
4.431	43.553
4.401	44.847
4.371	46.228
4.342	46.751
4.313	46.741
4.284	46.285
4.256	46.262
4.229	46.661
4.201	46.71
4.174	46.626
4.147	46.343
4.121	45.529
4.095	44.381
4.069	42.082
4.044	36.942
4.019	27.687
3.994	18.339
3.97	16.225
3.945	22.369
3.921	27.27
3.898	28.461
3.875	29.076
3.852	29.772
3.829	33.212
3.806	39.148
3.784	44.88
3.762	46.026
3.74	46.269
3.719	46.587
3.698	46.775
3.677	46.791
3.656	46.593
3.636	46.342
3.615	45.894
3.595	45.086
3.575	43.166
3.556	41.978
3.536	38.793
3.517	30.902
3.498	26.529
3.479	23.394
3.461	28.94
3.442	30.634
3.424	30.848
3.406	30.448
3.388	29.817
3.371	29.087
3.353	26.848
3.336	35.445
3.319	40.074
3.302	41.108
3.285	41.467
3.269	41.542
3.252	41.487
3.236	41.295
3.22	41.069
3.204	40.662
3.188	40.345
3.173	39.877
3.157	39.094
3.142	38.651
3.127	38.316
3.112	37.701
3.097	37.462
3.082	37.371
3.067	37.195
3.053	36.86
3.039	36.624
3.025	36.344
3.011	36.125
2.997	36.061
2.983	35.792
2.969	35.43
2.956	35.133
2.942	35.354
2.929	35.446
2.916	35.508
2.903	35.628
2.89	35.917
2.877	36.029
2.864	36.112
2.852	36.194
2.839	36.031
2.827	35.715
2.814	35.375
2.802	34.739
2.79	33.439
2.778	32.124
2.766	31.171
2.755	31.742
2.743	34.106
2.731	37.239
2.72	40.84
2.708	43.126
2.697	44.568
2.686	45.107
2.675	45.235
2.664	45.217
2.653	45.282
2.642	45.285
2.632	45.136
2.621	45.05
2.61	44.943
2.6	44.96
2.59	44.828
2.579	44.698
2.569	44.554
2.559	44.256
2.549	43.694
2.539	43.063
2.529	43.132
2.519	43.463
2.509	43.507
2.5	43.46
2.49	43.482
2.481	43.536
2.471	43.616
2.462	43.744
2.452	43.776
2.443	43.711
2.434	43.677
2.425	43.684
2.416	43.66
2.407	43.63
2.398	43.549
2.389	43.484
2.38	43.425
2.372	43.299
2.363	43.005
2.354	42.83
2.346	42.655
2.337	42.5
2.329	42.578
2.321	42.625
2.312	42.623
2.304	42.565
2.296	42.47
2.288	42.497
2.28	42.504
2.272	42.531
2.264	42.425
2.256	42.446
2.248	42.367
2.24	42.392
2.233	42.242
2.225	42.257
2.217	42.166
2.21	42.143
2.202	42.02
2.195	42.03
2.187	41.964
2.18	41.859
2.173	41.98
2.166	41.853
2.158	41.792
2.151	41.745
2.144	41.622
2.137	41.65
2.13	41.595
2.123	41.561
2.116	41.555
2.109	41.482
2.102	41.34
2.095	41.34
2.089	41.406
2.082	41.29
2.06	41.208
2.028	40.364
1.996	40.005
1.964	39.185
1.932	38.404
1.9	38.942
1.868	38.104
1.836	37.982
1.804	37.889
1.772	37.47
1.74	37.141
1.708	37.317
1.676	37.077
1.644	36.641
1.612	36.704
1.58	36.861
1.548	36.678
1.516	36.813
1.484	36.334
1.452	36.405
1.42	36.591
1.388	37.115
1.356	37.333
1.324	36.86
1.292	37.268
1.26	37.929
1.228	38.824
1.196	39.106
1.164	39.212
1.132	40.19
1.1	40.69
1.068	41.625
1.036	42.066
1.004	42.534
0.972	42.834
0.94	42.506
0.908	41.722
0.876	41.165
0.844	40.878
0.812	41.347
0.795	40.868
0.787	40.558
0.779	40.922
0.771	40.597
0.763	40.11
0.755	39.53
0.747	39.502
0.739	38.944
0.731	38.254
0.723	37.773
0.715	36.992
0.707	36.34
0.699	35.631
0.691	35.176
0.683	34.678
0.675	34.177
0.667	33.302
0.659	32.934
0.651	32.554
0.643	31.826
0.635	31.524
0.627	31.011
0.619	30.657
0.611	29.899
0.603	29.262
0.595	28.63
0.587	27.512
0.579	26.74
0.571	25.526
0.563	23.7
0.555	22.433
0.547	21.58
0.539	20.791
0.531	20.079
0.523	19.844
0.515	19.627
0.507	19.137
0.499	18.993
0.491	18.726
0.483	18.629
0.475	18.173
0.467	17.896
0.459	17.854
0.451	17.601
0.443	17.249
0.435	16.93
0.427	16.713
0.419	16.415
0.411	16.358
0.403	16.155
