Name: Dolomite CaMg(CO3)2
Type: Mineral
Class: Carbonates
Particle Size: Solid (polished surface)
Sample No.: dolomite.2
Owner: JHU
Wavelength Range: IR
Origin: Hunt and Salisbury Collection #102B;  Sample from Lee,
Description: The sample appeared to be pure white dolomite in hand
Measurement: Bidirectional reflectance
X Units: Wavelength (micrometers)
Y Units: Reflectance (percent)
wavelength	value
25.0442	73.9881
24.3388	71.1053
23.6719	64.9237
23.0407	54.4647
22.4422	40.6698
21.8741	26.2812
21.334	13.4336
20.8199	5.6387
20.33	3.7344
19.8627	3.6103
19.4163	3.8496
18.9896	4.3271
18.5812	4.9092
18.19	5.3701
17.815	5.8623
17.4551	6.3047
17.1094	6.7368
16.7772	7.1719
16.4576	7.5508
16.15	7.8637
15.8537	8.2012
15.568	8.5371
15.2925	8.7715
15.0265	8.9258
14.7697	9.2231
14.5214	9.582
14.2814	9.978
14.0492	10.5219
13.8244	11.9648
13.6067	8.2597
13.3957	9.4614
13.1912	10.001
12.9929	10.334
12.8004	10.6972
12.6135	11.019
12.432	11.3134
12.2557	11.7387
12.0843	12.2202
11.9176	12.8867
11.7555	14.2531
11.5977	15.8847
11.444	26.9706
11.2944	40.6439
11.1487	42.5734
11.0067	19.2248
10.8682	9.2104
10.7332	9.2622
10.6015	9.6831
10.473	10.039
10.3476	10.3193
10.2251	10.5266
10.1056	10.7109
9.98873	10.9192
9.87458	11.1076
9.763	11.1643
9.65392	11.3027
9.54724	11.4699
9.44291	11.6106
9.34082	11.726
9.24091	11.8691
9.14312	12.0195
9.04739	12.1113
8.95363	12.2766
8.8618	12.3996
8.77183	12.5715
8.68368	12.6987
8.59727	12.8701
8.51257	13.0434
8.42951	13.1723
8.34807	13.3388
8.26819	13.5363
8.18981	13.7111
8.11292	13.9135
8.03745	14.1508
7.96337	14.3918
7.89064	14.6596
7.81924	14.9553
7.74911	15.2414
7.68023	15.5363
7.61256	15.9702
7.54608	16.5129
7.48074	17.1023
7.41653	17.822
7.35341	18.7673
7.29136	19.9077
7.23034	21.2934
7.17033	23.4062
7.11132	26.6987
7.05327	31.9994
6.99616	39.8092
6.93996	42.3031
6.88467	43.5704
6.83024	45.5145
6.77667	47.172
6.72393	48.4569
6.67201	49.8971
6.62089	51.704
6.57054	53.5375
6.52095	55.086
6.4721	56.9364
6.42398	58.4173
6.37657	58.2647
6.32986	46.0016
6.28382	36.3495
6.23845	29.578
6.19373	25.09
6.14965	19.6281
6.10619	12.7202
6.06334	6.8625
6.02109	4.5139
5.97942	4.7363
5.93832	5.1413
5.89778	5.5264
5.8578	5.8699
5.81835	6.1938
5.77943	6.4636
5.74103	6.7007
5.70314	6.9311
5.66574	7.1462
5.62883	7.3398
5.5924	7.5246
5.55644	7.7077
5.52093	7.7893
5.48588	7.6467
5.45127	7.6909
5.41709	7.8921
5.38334	8.0534
5.35	8.1916
5.31708	8.3117
5.28456	8.4248
5.25243	8.5354
5.2207	8.6401
5.18934	8.7331
5.15836	8.821
5.12775	8.9004
5.09749	8.9687
5.0676	8.9873
5.03805	9.0783
5.00884	9.1577
4.97998	9.2209
4.95144	9.2776
4.92322	9.3381
4.89533	9.3965
4.86775	9.4524
4.84048	9.5029
4.81351	9.5498
4.78684	9.5964
4.76047	9.6374
4.73439	9.666
4.70859	9.6819
4.68306	9.6848
4.65782	9.6762
4.63284	9.6931
4.60814	9.7177
4.58369	9.7544
4.5595	9.7988
4.53557	9.8427
4.51188	9.8867
4.48845	9.9443
4.46525	9.9614
4.44229	9.9651
4.41957	9.9963
4.39708	10.0512
4.37481	10.1015
4.35277	10.1401
4.33096	10.1147
4.30935	10.1025
4.28797	10.0979
4.26679	10.1343
4.24583	10.155
4.22506	10.1711
4.2045	10.2541
4.18414	10.2912
4.16398	10.3012
4.14401	10.3073
4.12423	10.3325
4.10464	10.3491
4.08523	10.355
4.066	10.3471
4.04696	10.3398
4.02809	10.3408
4.0094	10.3586
3.99088	10.3879
3.97253	10.385
3.95435	10.3203
3.93634	10.2768
3.91848	10.2485
3.90079	10.248
3.88326	10.2676
3.86589	10.2724
3.84867	10.2973
3.8316	10.3271
3.81468	10.3247
3.79791	10.3047
3.78129	10.3154
3.76482	10.341
3.74848	10.3886
3.73229	10.4524
3.71624	10.4941
3.70032	10.5342
3.68454	10.5781
3.6689	10.6137
3.65338	10.6418
3.638	10.6643
3.62275	10.6826
3.60762	10.6936
3.59262	10.6963
3.57775	10.6928
3.56299	10.6682
3.54836	10.6123
3.53385	10.6289
3.51945	10.5969
3.50517	10.5581
3.49101	10.5361
3.47696	10.5166
3.46303	10.4992
3.4492	10.4729
3.43549	10.4609
3.42188	10.4807
3.40838	10.4924
3.39499	10.5009
3.38171	10.5117
3.36852	10.5566
3.35544	10.5605
3.34246	10.5351
3.32958	10.5332
3.3168	10.5383
3.30411	10.5207
3.29153	10.5647
3.27903	10.6133
3.26664	10.6399
3.25433	10.6633
3.24212	10.6816
3.23	10.706
3.21797	10.7229
3.20603	10.7422
3.19418	10.7522
3.18241	10.7658
3.17074	10.7851
3.15914	10.7934
3.14763	10.7824
3.13621	10.7754
3.12487	10.7739
3.11361	10.7744
3.10243	10.7744
3.09133	10.7678
3.0803	10.7629
3.06936	10.7705
3.0585	10.7773
3.04771	10.7834
3.037	10.7883
3.02636	10.8066
3.0158	10.8261
3.00531	10.8408
2.99489	10.8479
2.98454	10.8545
2.97427	10.8623
2.96407	10.873
2.95393	10.8799
2.94387	10.8906
2.93387	10.8969
2.92394	10.9038
2.91408	10.914
2.90429	10.9218
2.89456	10.9331
2.88489	10.9375
2.87529	10.9497
2.86576	10.9624
2.85628	10.9756
2.84687	10.9922
2.83752	11.0044
2.82823	11.0224
2.81901	11.0322
2.80984	11.0415
2.80073	11.039
2.79168	11.0302
2.78269	11.0205
2.77376	11.0019
2.76488	11.0044
2.75606	11.0483
2.7473	11.0903
2.73859	11.1474
2.72994	11.1919
2.72134	11.2392
2.7128	11.2837
2.70431	11.3144
2.69587	11.3325
2.68748	11.3393
2.67915	11.395
2.67087	11.4472
2.66264	11.4653
2.65446	11.4804
2.64633	11.4887
2.63825	11.4902
2.63021	11.5039
2.62223	11.5005
2.6143	11.5058
2.60641	11.5088
2.59857	11.5029
2.59078	11.5049
2.58304	11.5068
2.57534	11.4966
2.56768	11.4751
2.56008	11.4555
2.55251	11.4243
2.54499	11.3496
2.53752	11.2422
2.53009	11.1704
2.5227	11.1196
2.51536	11.104
2.50806	11.1133
2.5008	11.1294
2.49358	11.1509
2.4864	11.1767
2.47927	11.2055
2.47218	11.2168
2.46512	11.2153
2.45811	11.2217
2.45114	11.2466
2.4442	11.2817
2.43731	11.3247
2.43045	11.3662
2.42363	11.393
2.41685	11.4341
2.41011	11.457
2.40341	11.4785
2.39674	11.4926
2.39011	11.5156
2.38352	11.5219
2.37696	11.541
2.37044	11.5571
2.36395	11.561
2.35751	11.5527
2.35109	11.5117
2.34471	11.4316
2.33836	11.3598
2.33205	11.2929
2.32578	11.2558
2.31953	11.2524
2.31332	11.2563
2.30714	11.2734
2.301	11.2832
2.29489	11.2949
2.28881	11.3164
2.28276	11.3242
2.27675	11.3242
2.27076	11.334
2.26481	11.3398
2.25889	11.374
2.253	11.4121
2.24714	11.4463
2.24131	11.4726
2.23551	11.497
2.22974	11.5166
2.224	11.5283
2.21829	11.5449
2.21261	11.5595
2.20696	11.5674
2.20134	11.581
2.19574	11.5879
2.19018	11.5996
2.18464	11.6152
2.17913	11.6113
2.17365	11.6103
2.16819	11.6054
2.16277	11.6064
2.15737	11.6054
2.15199	11.5947
2.14665	11.58
2.14133	11.5703
2.13603	11.58
2.13077	11.5703
2.12552	11.5781
2.12031	11.5908
2.11512	11.5996
2.10995	11.6064
2.10481	11.6093
2.0997	11.6142
2.09461	11.6142
2.08954	11.6172
2.0845	11.6269
2.07948	11.6289
