Name: Topaz Al2SiO4(F,OH)2
Type: Mineral
Class: Silicates
Subclass: Nesosilicates (Isolated tetrahedra)
Particle Size: Fine  (Less than 2  Micrometers)
Sample No.: topaz.3
Owner: JHU
Wavelength Range: IR
Origin: Durango, Mexico via Don Hoover, USGS
Description: The sample was composed of several different colorless
Measurement: Transmission
X Units: Wavelength (micrometers)
Y Units: Transmittance (percent)
wavelength	value
25.0442	65.7342
24.3388	69.6756
23.6719	47.703
23.0407	46.0389
22.4422	18.3906
21.8741	6.207
21.334	25.289
20.8199	9.9258
20.33	23.3163
19.8627	21.6152
19.4163	21.5869
18.9896	15.5332
18.5812	39.7938
18.19	61.703
17.815	43.4843
17.4551	57.7811
17.1094	46.0897
16.7772	53.2518
16.4576	21.832
16.15	2.6172
15.8537	4.1562
15.568	10.8476
15.2925	15.3574
15.0265	23.9072
14.7697	52.1913
14.5214	66.3846
14.2814	72.3787
14.0492	67.0321
13.8244	79.5779
13.6067	83.5667
13.3957	85.2146
13.1912	85.1795
12.9929	82.8181
12.8004	79.0174
12.6135	77.0936
12.432	71.6922
12.2557	64.307
12.0843	51.8358
11.9176	35.0219
11.7555	17.3012
11.5977	5.2309
11.444	1.3926
11.2944	1.2993
11.1487	2.5059
11.0067	3.9966
10.8682	6.0547
10.7332	8.0903
10.6015	8.539
10.473	8.9243
10.3476	13.0644
10.2251	24.3564
10.1056	34.3153
9.98873	24.4672
9.87458	26.5966
9.763	38.8397
9.65392	46.3036
9.54724	50.7674
9.44291	53.371
9.34082	55.1776
9.24091	56.4647
9.14312	58.0506
9.04739	60.5648
8.95363	63.1512
8.8618	65.3973
8.77183	67.2015
8.68368	69.1033
8.59727	70.4056
8.51257	72.6985
8.42951	75.3147
8.34807	78.128
8.26819	80.6885
8.18981	83.0909
8.11292	84.99
8.03745	86.3474
7.96337	87.4578
7.89064	88.572
7.81924	89.3093
7.74911	89.8711
7.68023	90.2129
7.61256	90.6123
7.54608	91.0108
7.48074	91.3005
7.41653	91.5535
7.35341	91.6668
7.29136	91.834
7.23034	91.9187
7.17033	91.0908
7.11132	91.0479
7.05327	92.0447
6.99616	92.3406
6.93996	92.5681
6.88467	92.8565
6.83024	92.9531
6.77667	93.0186
6.72393	93.3691
6.67201	93.8308
6.62089	94.1104
6.57054	94.3857
6.52095	94.365
6.4721	94.3418
6.42398	94.4187
6.37657	94.2556
6.32986	93.8936
6.28382	93.6484
6.23845	93.3984
6.19373	93.2305
6.14965	92.1414
6.10619	92.2908
6.06334	92.3369
6.02109	92.2139
5.97942	92.8533
5.93832	94.0447
5.89778	94.9297
5.8578	95.3894
5.81835	95.7058
5.77943	95.8489
5.74103	96.1335
5.70314	96.2175
5.66574	96.2087
5.62883	96.2353
5.5924	95.9922
5.55644	95.656
5.52093	95.4043
5.48588	95.4678
5.45127	95.6738
5.41709	95.9124
5.38334	95.8037
5.35	95.8328
5.31708	96.0261
5.28456	96.2742
5.25243	96.459
5.2207	96.7537
5.18934	96.9727
5.15836	97.1135
5.12775	97.2949
5.09749	97.3271
5.0676	97.3445
5.03805	97.4167
5.00884	97.4287
4.97998	97.5105
4.95144	97.5647
4.92322	97.5432
4.89533	97.6189
4.86775	97.7248
4.84048	97.7063
4.81351	97.8274
4.78684	97.8513
4.76047	97.7595
4.73439	97.8342
4.70859	97.7761
4.68306	97.8093
4.65782	97.8044
4.63284	97.8523
4.60814	97.9607
4.58369	97.926
4.5595	97.9827
4.53557	97.9392
4.51188	97.9587
4.48845	97.9597
4.46525	98.0041
4.44229	97.9353
4.41957	97.9636
4.39708	97.9817
4.37481	97.9646
4.35277	98.074
4.33096	98.0222
4.30935	98.0154
4.28797	97.9851
4.26679	98.0413
4.24583	98.0222
4.22506	97.99
4.2045	98.0315
4.18414	97.9871
4.16398	98.0085
4.14401	97.9954
4.12423	97.9827
4.10464	97.9299
4.08523	97.9807
4.066	97.9988
4.04696	97.9807
4.02809	97.9748
4.0094	97.9226
3.99088	97.9319
3.97253	98.0593
3.95435	97.9646
3.93634	98.0222
3.91848	98.0784
3.90079	98.0622
3.88326	98.0588
3.86589	97.8791
3.84867	97.9392
3.8316	97.9382
3.81468	98.071
3.79791	97.9587
3.78129	97.9734
3.76482	97.9265
3.74848	97.9143
3.73229	97.8718
3.71624	97.7751
3.70032	97.6663
3.68454	97.7722
3.6689	97.697
3.65338	97.6995
3.638	97.5486
3.62275	97.4851
3.60762	97.3943
3.59262	97.4631
3.57775	97.3845
3.56299	97.363
3.54836	97.1623
3.53385	97.157
3.51945	97.0393
3.50517	96.8298
3.49101	96.8259
3.47696	96.6814
3.46303	96.6819
3.4492	96.5452
3.43549	96.2751
3.42188	96.1541
3.40838	95.926
3.39499	95.9978
3.38171	95.9373
3.36852	95.7952
3.35544	95.6604
3.34246	95.4607
3.32958	95.3635
3.3168	95.0803
3.30411	95.0134
3.29153	94.8772
3.27903	94.6584
3.26664	94.469
3.25433	94.24
3.24212	93.8792
3.23	93.4807
3.21797	93.2146
3.20603	92.8171
3.19418	92.6331
3.18241	92.3635
3.17074	92.1658
3.15914	91.8943
3.14763	91.7566
3.13621	91.4597
3.12487	91.3953
3.11361	91.2595
3.10243	91.1257
3.09133	91.0017
3.0803	90.9793
3.06936	90.7586
3.0585	90.7429
3.04771	90.6902
3.037	90.3728
3.02636	90.3865
3.0158	90.2322
3.00531	89.9832
2.99489	89.8289
2.98454	89.9783
2.97427	89.9978
2.96407	90.2312
2.95393	90.4539
2.94387	90.6326
2.93387	90.6062
2.92394	90.4431
2.91408	90.5896
2.90429	90.7664
2.89456	90.8396
2.88489	90.8484
2.87529	90.7586
2.86576	90.8523
2.85628	91.0593
2.84687	91.4851
2.83752	91.7468
2.82823	92.0095
2.81901	92.4509
2.80984	92.6052
2.80073	92.6619
2.79168	92.864
2.78269	93.1091
2.77376	93.2673
2.76488	93.5212
2.75606	94.1375
2.7473	94.4617
2.73859	94.657
2.72994	95.3591
2.72134	95.5632
2.7128	95.7742
2.70431	96.239
2.69587	96.3748
2.68748	96.407
2.67915	96.5466
2.67087	96.7507
2.66264	96.3005
2.65446	96.2732
2.64633	96.1843
2.63825	96.2146
2.63021	96.4226
2.62223	96.1013
2.6143	96.0779
2.60641	96.1882
2.59857	96.2224
2.59078	96.1755
2.58304	96.2263
2.57534	95.9841
2.56768	95.8552
2.56008	95.9763
2.55251	95.7869
2.54499	95.9763
2.53752	95.9529
2.53009	95.7126
2.5227	95.4255
2.51536	95.5701
2.50806	95.5798
2.5008	95.572
2.49358	95.6326
2.4864	95.6892
2.47927	95.3435
2.47218	95.5232
2.46512	95.2849
2.45811	95.2888
2.45114	95.2849
2.4442	95.2693
2.43731	95.2517
2.43045	95.2927
2.42363	95.4294
2.41685	95.2224
2.41011	95.1736
2.40341	95.1404
2.39674	95.0388
2.39011	95.0876
2.38352	95.238
2.37696	95.0955
2.37044	94.8318
2.36395	94.9294
2.35751	95.0564
2.35109	95.0408
2.34471	94.8689
2.33836	94.9373
2.33205	94.5701
2.32578	94.7341
2.31953	94.8943
2.31332	94.9373
2.30714	94.7849
2.301	94.9451
2.29489	94.8474
2.28881	94.8142
2.28276	94.7654
2.27675	94.8611
2.27076	94.7654
2.26481	94.8787
2.25889	95.0505
2.253	94.7595
2.24714	94.9158
2.24131	94.656
2.23551	95.0388
2.22974	95.0486
2.224	94.6404
2.21829	94.9314
2.21261	94.8826
2.20696	94.8044
2.20134	94.7263
2.19574	94.6423
2.19018	94.7732
2.18464	94.9841
2.17913	94.7341
2.17365	95.0955
2.16819	95.3044
2.16277	95.2771
2.15737	95.2341
2.15199	94.7459
2.14665	94.8748
2.14133	94.9763
2.13603	95.0388
2.13077	95.1169
2.12552	95.2419
2.12031	95.3005
2.11512	95.0662
2.10995	95.0388
2.10481	95.0466
2.0997	95.1443
2.09461	95.3044
2.08954	95.324
2.0845	95.1638
2.07948	95.613
