Name: Basalt
Type: Rocks
Class: Igneous
Subclass: Mafic
Particle Size: Solid
Sample No.: Basalt.H9
Owner: JHU
Origin: from Kilauea, via Rosalind Helz, USGS, Reston, VA (Cat. No. KI
Description: A dark gray, slightly vesicular rock, consisting of black and
Measurement: Directional (10 degree) hemispherical reflectance
X Units: Wavelength (micrometers)
Y Units: Reflectance (percent)
wavelength	value
14.0112	1.6551
13.7147	3.0914
13.4304	2.9264
13.1577	2.5512
12.8959	2.8202
12.6443	3.1572
12.4023	3.7688
12.1694	4.5876
11.945	5.4431
11.7289	6.4927
11.5203	7.8776
11.3191	9.1964
11.1248	10.127
10.937	10.9989
10.7555	11.674
10.5799	11.7462
10.4099	11.7672
10.2454	11.5101
10.0859	11.1927
9.9313	11.433
9.7814	11.2075
9.636	10.8096
9.4948	10.7049
9.3577	11.2188
9.2245	11.1267
9.095	10.7615
8.9691	10.0549
8.8467	8.1792
8.7275	6.2421
8.6116	5.1501
8.4986	4.5124
8.3886	3.87
8.2814	2.7891
8.1769	1.4301
8.075	0.7525
7.9756	0.6372
7.8786	0.6924
7.784	0.7995
7.6916	0.9255
7.6014	1.0701
7.5133	1.2255
7.4272	1.3319
7.343	1.4585
7.2607	1.5782
7.1803	1.7205
7.1016	1.8148
7.0246	1.9404
6.9493	2.0681
6.8755	2.1286
6.8034	2.2233
6.7327	2.288
6.6634	2.3121
6.5956	2.3538
6.5292	2.3932
6.464	2.4337
6.4002	2.4924
6.3376	2.4971
6.2762	2.595
6.216	2.6517
6.157	2.7106
6.099	2.7488
6.0421	2.8017
5.9863	2.8582
5.9315	2.9623
5.8777	3.0818
5.8249	3.1596
5.773	3.2721
5.722	3.3421
5.6719	3.4493
5.6227	3.5208
5.5744	3.5423
5.5268	3.6405
5.4801	3.6558
5.4341	3.7408
5.3889	3.7322
5.3445	3.7621
5.3008	3.8335
5.2578	3.873
5.2154	3.919
5.1738	3.9832
5.1328	4.0737
5.0925	4.1494
5.0528	4.2743
5.0137	4.4447
4.9752	4.5792
4.9373	4.7709
4.9	4.919
4.8632	5.0826
4.827	5.2558
4.7913	5.4119
4.7561	5.5938
4.7215	5.8116
4.6873	6.0164
4.6536	6.2594
4.6205	6.4717
4.5877	6.7045
4.5555	6.9613
4.5237	7.1475
4.4923	7.3197
4.4614	7.493
4.4309	7.6109
4.4008	7.7742
4.3711	7.8693
4.3418	7.9769
4.3129	8.111
4.2844	8.2067
4.2563	8.3109
4.2285	8.3867
4.2011	8.4909
4.174	8.5713
4.1473	8.6728
4.1209	8.7441
4.0949	8.7802
4.0692	8.8598
4.0438	8.9254
4.0187	8.9652
3.994	8.989
3.9695	9.0651
3.9453	9.097
3.9214	9.1212
3.8979	9.1598
3.8746	9.1821
3.8515	9.2226
3.8288	9.2442
3.8063	9.2369
3.7841	9.273
3.7621	9.2655
3.7404	9.3103
3.7189	9.2662
3.6977	9.2885
3.6767	9.2803
3.656	9.3002
3.6355	9.2468
3.6152	9.2854
3.5951	9.2867
3.5753	9.2484
3.5557	9.2166
3.5363	9.2029
3.5171	9.1694
3.4981	9.1387
3.4793	9.1493
3.4607	9.1781
3.4423	9.1064
3.4241	8.9981
3.4061	9.027
3.3883	9.0239
3.3707	9.0122
3.3533	9.0438
3.336	9.0353
3.3189	8.9953
3.302	8.9433
3.2853	8.9397
3.2687	8.8553
3.2523	8.846
3.2361	8.8125
3.22	8.786
3.204	8.7283
3.1883	8.6749
3.1727	8.6371
3.1572	8.5758
3.1419	8.5802
3.1268	8.5521
3.1117	8.5228
3.0969	8.4281
3.0821	8.4649
3.0675	8.4424
3.0531	8.4236
3.0388	8.3602
3.0246	8.3454
3.0105	8.3215
2.9966	8.3055
2.9828	8.3412
2.9692	8.3556
2.9556	8.3083
2.9422	8.3163
2.9289	8.3486
2.9157	8.3309
2.9027	8.2314
2.8897	8.3158
2.8769	8.3205
2.8642	8.2875
2.8516	8.2491
2.8391	8.28
2.8267	8.2139
2.8144	8.3468
2.8022	8.3772
2.7902	8.3939
2.7782	8.5404
2.7664	8.6334
2.7546	8.8467
2.7429	9.0804
2.7314	9.4188
2.7199	9.5979
2.7085	9.8841
2.6973	10.0713
2.6861	10.1435
2.675	10.1392
2.664	10.1088
2.6531	10.0706
2.6423	10.0805
2.6315	9.9947
2.6209	9.9712
2.6103	9.9869
2.5999	9.8529
2.5895	9.821
2.5792	9.7704
2.569	9.7389
2.5588	9.6257
2.5487	9.6155
2.5388	9.5489
2.5289	9.4706
2.519	9.4064
2.5093	9.4514
2.4996	9.4387
2.49	9.3311
2.4805	9.3
2.471	9.24
2.4616	9.1908
2.4523	9.255
2.4431	9.0989
2.4339	9.0752
2.4248	9.0623
2.4157	9.0773
2.4068	8.9465
2.3979	8.947
2.389	8.9346
2.3802	8.8908
2.3715	8.85
2.3629	8.8308
2.3543	8.8111
2.3458	8.9306
2.3373	8.8218
2.3289	8.8617
2.3206	8.7849
2.3123	8.8369
2.3041	8.8221
2.2959	8.7584
2.2878	8.7996
2.2798	8.8525
2.2718	8.8956
2.2638	8.8509
2.2559	8.8399
2.2481	8.8385
2.2403	8.839
2.2326	8.7935
2.225	8.8553
2.2173	8.8451
2.2098	8.8054
2.2023	8.8901
2.1948	8.9317
2.1874	8.8823
2.18	8.9128
2.1727	8.9423
2.1655	8.9756
2.1583	8.9681
2.1511	8.9564
2.144	8.9789
2.1369	8.9594
2.1299	9.0213
2.1229	9.0138
2.116	9.0441
2.1091	9.0808
2.1023	9.0865
2.0955	9.1329
2.0887	9.0436
2.082	9.232
2.06	9.142
2.028	9.2683
1.996	9.5642
1.964	9.6382
1.932	9.777
1.9	10.0219
1.868	10.0611
1.836	10.0998
1.804	10.3958
1.772	10.4078
1.74	10.5588
1.708	10.7387
1.676	10.7147
1.644	10.9048
1.612	11.1489
1.58	11.0495
1.548	10.9406
1.516	10.8632
1.484	10.6789
1.452	10.5109
1.42	10.281
1.388	10.2462
1.356	9.9944
1.324	9.9905
1.292	9.71
1.26	9.6405
1.228	9.3261
1.196	9.2061
1.164	9.0474
1.132	8.7745
1.1	8.2445
1.068	7.9574
1.036	7.648
1.004	7.8153
0.972	7.8727
0.94	8.4091
0.908	9.0715
0.876	9.7095
0.844	10.0997
0.812	10.6207
0.795	10.7953
0.787	10.82
0.779	11.1326
0.771	10.9211
0.763	11.0303
0.755	11.0333
0.747	11.1751
0.739	11.3829
0.731	11.1538
0.723	11.1707
0.715	11.1713
0.707	11.3145
0.699	11.3653
0.691	11.4528
0.683	11.4414
0.675	11.3374
0.667	11.2944
0.659	11.1844
0.651	11.4897
0.643	11.1541
0.635	11.387
0.627	11.163
0.619	11.0661
0.611	11.443
0.603	11.2525
0.595	11.3443
0.587	11.3037
0.579	11.1761
0.571	11.0602
0.563	10.9594
0.555	11.0699
0.547	10.999
0.539	10.9934
0.531	10.829
0.523	10.6858
0.515	10.4945
0.507	10.5858
0.499	10.19
0.491	10.3163
0.483	10.0986
0.475	9.964
0.467	9.8758
0.459	9.3578
0.451	9.6636
0.443	9.5334
0.435	9.6434
0.427	9.4238
0.419	9.1732
0.411	9.0689
0.403	8.945
