Name: Grossular Ca3Al2(Si04)3
Type: Mineral
Class: Silicates
Subclass: Nesosilicates (Isolated Tetrahedra); Garnet Group
Particle Size: Coarse  (74-250 Micrometers)
Sample No.: grossul.2
Owner: JHU
Wavelength Range: IR
Origin: Sample from Pear Gillis Farm, Beach Glen, Buncombe Co.,
Description: The sample was a spherical cluster of small crystals
Measurement: Bidirectional reflectance
X Units: Wavelength (micrometers)
Y Units: Reflectance (percent)
wavelength	value
25.0442	3.137
24.3388	3.5727
23.6719	5.2617
23.0407	7.6694
22.4422	8.1096
21.8741	7.4968
21.334	7.7095
20.8199	8.1594
20.33	7.5488
19.8627	6.9321
19.4163	5.0469
18.9896	1.9365
18.5812	4.3896
18.19	6.1003
17.815	5.1379
17.4551	2.9578
17.1094	0.8423
16.7772	0.4221
16.4576	0.8811
16.15	0.9084
15.8537	0.4358
15.568	0.6619
15.2925	0.8118
15.0265	0.9387
14.7697	1.0559
14.5214	1.1301
14.2814	1.2581
14.0492	1.366
13.8244	1.448
13.6067	1.5737
13.3957	1.6843
13.1912	1.8113
12.9929	1.929
12.8004	2.1311
12.6135	2.4302
12.432	2.8198
12.2557	3.4221
12.0843	4.6177
11.9176	5.7029
11.7555	5.1516
11.5977	6.4575
11.444	4.9526
11.2944	2.1467
11.1487	2.6377
11.0067	5.9128
10.8682	8.0054
10.7332	8.6506
10.6015	9.0053
10.473	9.2719
10.3476	9.2771
10.2251	9.1255
10.1056	8.7756
9.98873	7.8318
9.87458	6.7412
9.763	5.1814
9.65392	3.5413
9.54724	1.9468
9.44291	0.6074
9.34082	0.0742
9.24091	0.0874
9.14312	0.1633
9.04739	0.2554
8.95363	0.3169
8.8618	0.3677
8.77183	0.4219
8.68368	0.481
8.59727	0.5454
8.51257	0.5908
8.42951	0.6216
8.34807	0.647
8.26819	0.6919
8.18981	0.7456
8.11292	0.7827
8.03745	0.843
7.96337	0.8774
7.89064	0.9314
7.81924	0.9712
7.74911	0.9873
7.68023	1.0007
7.61256	0.9983
7.54608	0.9839
7.48074	0.9949
7.41653	1.0466
7.35341	1.0928
7.29136	1.1457
7.23034	1.2029
7.17033	1.2007
7.11132	1.2051
7.05327	1.2622
6.99616	1.3206
6.93996	1.3904
6.88467	1.5486
6.83024	1.7754
6.77667	1.978
6.72393	2.1023
6.67201	2.2307
6.62089	2.3989
6.57054	2.6133
6.52095	2.8516
6.4721	3.0073
6.42398	3.0154
6.37657	2.9932
6.32986	2.9521
6.28382	2.8943
6.23845	2.7832
6.19373	2.4795
6.14965	2.0579
6.10619	1.6033
6.06334	1.279
6.02109	1.1133
5.97942	1.0237
5.93832	0.9648
5.89778	0.9468
5.8578	0.9585
5.81835	0.9792
5.77943	1.0137
5.74103	1.0708
5.70314	1.1387
5.66574	1.2393
5.62883	1.3276
5.5924	1.376
5.55644	1.4131
5.52093	1.4487
5.48588	1.4233
5.45127	1.4404
5.41709	1.5793
5.38334	1.7446
5.35	1.9431
5.31708	2.2253
5.28456	2.7986
5.25243	3.4831
5.2207	3.946
5.18934	4.1872
5.15836	4.3596
5.12775	4.5161
5.09749	4.6816
5.0676	4.729
5.03805	4.7524
5.00884	4.8391
4.97998	5.0005
4.95144	5.112
4.92322	5.177
4.89533	5.2278
4.86775	5.2546
4.84048	5.2995
4.81351	5.3332
4.78684	5.3533
4.76047	5.3794
4.73439	5.4057
4.70859	5.4099
4.68306	5.415
4.65782	5.4211
4.63284	5.4153
4.60814	5.4209
4.58369	5.4328
4.5595	5.4419
4.53557	5.4543
4.51188	5.4617
4.48845	5.4636
4.46525	5.4812
4.44229	5.499
4.41957	5.5137
4.39708	5.5344
4.37481	5.563
4.35277	5.582
4.33096	5.603
4.30935	5.6384
4.28797	5.6658
4.26679	5.7126
4.24583	5.7541
4.22506	5.7888
4.2045	5.8332
4.18414	5.8674
4.16398	5.9011
4.14401	5.9192
4.12423	5.9468
4.10464	5.9426
4.08523	5.9226
4.066	5.8826
4.04696	5.8354
4.02809	5.7873
4.0094	5.7446
3.99088	5.7141
3.97253	5.7109
3.95435	5.7456
3.93634	5.8093
3.91848	5.8662
3.90079	5.9292
3.88326	5.9895
3.86589	6.0415
3.84867	6.1042
3.8316	6.1521
3.81468	6.2051
3.79791	6.237
3.78129	6.2771
3.76482	6.3147
3.74848	6.3501
3.73229	6.3789
3.71624	6.4197
3.70032	6.4592
3.68454	6.5051
3.6689	6.5481
3.65338	6.5925
3.638	6.6338
3.62275	6.6584
3.60762	6.6943
3.59262	6.7278
3.57775	6.7397
3.56299	6.7593
3.54836	6.768
3.53385	6.78
3.51945	6.7778
3.50517	6.76
3.49101	6.77
3.47696	6.7756
3.46303	6.7932
3.4492	6.7798
3.43549	6.7737
3.42188	6.7397
3.40838	6.7424
3.39499	6.7585
3.38171	6.7373
3.36852	6.728
3.35544	6.7214
3.34246	6.7265
3.32958	6.7102
3.3168	6.6889
3.30411	6.6692
3.29153	6.636
3.27903	6.5993
3.26664	6.5818
3.25433	6.5554
3.24212	6.5288
3.23	6.4829
3.21797	6.4429
3.20603	6.3943
3.19418	6.3525
3.18241	6.3159
3.17074	6.2771
3.15914	6.2368
3.14763	6.1824
3.13621	6.1411
3.12487	6.0806
3.11361	6.0471
3.10243	6.0112
3.09133	5.9717
3.0803	5.9419
3.06936	5.915
3.0585	5.8904
3.04771	5.8716
3.037	5.8469
3.02636	5.8293
3.0158	5.7754
3.00531	5.75
2.99489	5.6951
2.98454	5.6543
2.97427	5.6047
2.96407	5.5574
2.95393	5.5168
2.94387	5.49
2.93387	5.4805
2.92394	5.4651
2.91408	5.4451
2.90429	5.4267
2.89456	5.3684
2.88489	5.2829
2.87529	5.1929
2.86576	5.1267
2.85628	5.0205
2.84687	4.4736
2.83752	3.4448
2.82823	2.4167
2.81901	1.9761
2.80984	2.2312
2.80073	1.8748
2.79168	2.1235
2.78269	1.7593
2.77376	1.4258
2.76488	1.9145
2.75606	1.9834
2.7473	1.2515
2.73859	1.8237
2.72994	2.3437
2.72134	2.8061
2.7128	2.9402
2.70431	5.9053
2.69587	6.3691
2.68748	6.612
2.67915	6.6748
2.67087	6.7026
2.66264	6.77
2.65446	6.7905
2.64633	6.7917
2.63825	6.7866
2.63021	6.7593
2.62223	6.8052
2.6143	6.8017
2.60641	6.7995
2.59857	6.8315
2.59078	6.8723
2.58304	6.8281
2.57534	6.8479
2.56768	6.8464
2.56008	6.8498
2.55251	6.8215
2.54499	6.8249
2.53752	6.8291
2.53009	6.8042
2.5227	6.7937
2.51536	6.7788
2.50806	6.8061
2.5008	6.7793
2.49358	6.7705
2.4864	6.8013
2.47927	6.8481
2.47218	6.8623
2.46512	6.8955
2.45811	6.9331
2.45114	6.9097
2.4442	6.9079
2.43731	6.9438
2.43045	6.9404
2.42363	6.9382
2.41685	6.9995
2.41011	6.9975
2.40341	6.998
2.39674	7.0093
2.39011	6.8506
2.38352	6.8213
2.37696	6.822
2.37044	6.7817
2.36395	6.7607
2.35751	6.7991
2.35109	6.895
2.34471	6.957
2.33836	7.0093
2.33205	7.083
2.32578	7.166
2.31953	7.2314
2.31332	7.2712
2.30714	7.2947
2.301	7.3071
2.29489	7.312
2.28881	7.2803
2.28276	7.2954
2.27675	7.2925
2.27076	7.2627
2.26481	7.2114
2.25889	7.1831
2.253	7.2539
2.24714	7.3003
2.24131	7.3388
2.23551	7.373
2.22974	7.4267
2.224	7.4399
2.21829	7.4775
2.21261	7.4736
2.20696	7.4346
2.20134	7.4619
2.19574	7.5068
2.19018	7.5552
2.18464	7.5691
2.17913	7.6015
2.17365	7.6284
2.16819	7.6665
2.16277	7.6972
2.15737	7.6738
2.15199	7.6865
2.14665	7.7065
2.14133	7.7258
2.13603	7.7546
2.13077	7.7385
2.12552	7.7656
2.12031	7.7217
2.11512	7.7505
2.10995	7.7734
2.10481	7.7759
2.0997	7.7571
2.09461	7.7825
2.08954	7.8064
2.0845	7.7676
2.07948	7.7595
