Name: Picrite
Type: Rocks
Class: Igneous
Subclass: Ultramafic
Particle Size: Solid
Sample No.: Picrite.H2
Owner: JHU
Origin: from Kilauea, via Rosalind Helz, USGS, Reston, VA (Cat. No.: KI
Description: A light gray porphyritic, slightly vesicular rock. Green olivine
Measurement: Directional (10 degree) hemispherical reflectance
X Units: Wavelength (micrometers)
Y Units: Reflectance (percent)
wavelength	value
14.0112	1.8506
13.7147	2.8556
13.4304	2.9412
13.1577	3.4837
12.8959	3.772
12.6443	4.2396
12.4023	4.874
12.1694	5.8903
11.945	6.9249
11.7289	7.3284
11.5203	10.2328
11.3191	13.4221
11.1248	14.7756
10.937	15.8433
10.7555	16.7701
10.5799	16.1456
10.4099	11.816
10.2454	12.1282
10.0859	9.479
9.9313	8.6831
9.7814	8.8795
9.636	9.1553
9.4948	9.4052
9.3577	8.5969
9.2245	7.3837
9.095	7.271
8.9691	6.9563
8.8467	5.6707
8.7275	4.4724
8.6116	3.9644
8.4986	3.7594
8.3886	3.536
8.2814	2.8953
8.1769	1.999
8.075	1.6486
7.9756	1.5317
7.8786	1.545
7.784	1.634
7.6916	1.7779
7.6014	1.8626
7.5133	1.9868
7.4272	2.1605
7.343	2.2498
7.2607	2.4014
7.1803	2.5561
7.1016	2.7434
7.0246	2.8784
6.9493	3.0241
6.8755	3.0925
6.8034	3.2367
6.7327	3.3363
6.6634	3.3888
6.5956	3.4465
6.5292	3.4594
6.464	3.5147
6.4002	3.5384
6.3376	3.6504
6.2762	3.6677
6.216	3.7268
6.157	3.7662
6.099	3.7779
6.0421	3.7657
5.9863	3.8215
5.9315	4.0151
5.8777	4.1883
5.8249	4.3017
5.773	4.4444
5.722	4.5488
5.6719	4.669
5.6227	4.7721
5.5744	4.8652
5.5268	5.0168
5.4801	5.0916
5.4341	5.2148
5.3889	5.2992
5.3445	5.3979
5.3008	5.4607
5.2578	5.5223
5.2154	5.622
5.1738	5.7475
5.1328	5.879
5.0925	6.0251
5.0528	6.187
5.0137	6.3818
4.9752	6.6002
4.9373	6.8296
4.9	7.102
4.8632	7.3643
4.827	7.6235
4.7913	7.9109
4.7561	8.1893
4.7215	8.5064
4.6873	8.8143
4.6536	9.1654
4.6205	9.5849
4.5877	9.9979
4.5555	10.4238
4.5237	10.7745
4.4923	11.1372
4.4614	11.4002
4.4309	11.6512
4.4008	11.895
4.3711	12.1431
4.3418	12.3637
4.3129	12.5988
4.2844	12.8437
4.2563	13.0558
4.2285	13.2724
4.2011	13.499
4.174	13.6734
4.1473	13.8605
4.1209	14.0278
4.0949	14.1677
4.0692	14.2763
4.0438	14.4197
4.0187	14.5124
3.994	14.6416
3.9695	14.7592
3.9453	14.9404
3.9214	15.0864
3.8979	15.213
3.8746	15.3441
3.8515	15.4863
3.8288	15.6386
3.8063	15.7116
3.7841	15.8862
3.7621	15.9747
3.7404	16.1337
3.7189	16.2415
3.6977	16.3657
3.6767	16.4678
3.656	16.5909
3.6355	16.6851
3.6152	16.7948
3.5951	16.8475
3.5753	16.9221
3.5557	16.987
3.5363	16.9722
3.5171	16.7337
3.4981	16.4446
3.4793	16.7163
3.4607	16.7526
3.4423	16.521
3.4241	15.948
3.4061	16.3204
3.3883	16.7566
3.3707	17.0109
3.3533	17.3512
3.336	17.6177
3.3189	17.7311
3.302	17.7398
3.2853	17.7682
3.2687	17.7213
3.2523	17.6674
3.2361	17.6241
3.22	17.5992
3.204	17.5122
3.1883	17.4457
3.1727	17.3425
3.1572	17.2387
3.1419	17.1059
3.1268	16.9584
3.1117	16.9254
3.0969	16.8023
3.0821	16.7311
3.0675	16.6563
3.0531	16.6371
3.0388	16.5726
3.0246	16.5485
3.0105	16.5304
2.9966	16.4339
2.9828	16.3565
2.9692	16.3628
2.9556	16.2888
2.9422	16.3153
2.9289	16.35
2.9157	16.3169
2.9027	16.3565
2.8897	16.4522
2.8769	16.4262
2.8642	16.4896
2.8516	16.6064
2.8391	16.7542
2.8267	16.8046
2.8144	16.9291
2.8022	17.1002
2.7902	17.2251
2.7782	17.5017
2.7664	17.8061
2.7546	18.0972
2.7429	18.6703
2.7314	19.4379
2.7199	19.3527
2.7085	21.0396
2.6973	21.3443
2.6861	21.5194
2.675	21.5974
2.664	21.6178
2.6531	21.6096
2.6423	21.4841
2.6315	21.3252
2.6209	21.3238
2.6103	21.1713
2.5999	21.059
2.5895	20.8493
2.5792	20.8563
2.569	20.639
2.5588	20.556
2.5487	20.3519
2.5388	20.2666
2.5289	20.1288
2.519	20.0093
2.5093	19.9122
2.4996	19.8473
2.49	19.6057
2.4805	19.6113
2.471	19.5131
2.4616	19.3119
2.4523	19.2088
2.4431	19.2257
2.4339	19.1039
2.4248	18.9776
2.4157	18.9662
2.4068	18.9239
2.3979	18.9025
2.389	18.7737
2.3802	18.6986
2.3715	18.708
2.3629	18.6659
2.3543	18.5953
2.3458	18.5639
2.3373	18.5036
2.3289	18.5903
2.3206	18.5194
2.3123	18.397
2.3041	18.467
2.2959	18.5529
2.2878	18.5123
2.2798	18.4514
2.2718	18.5301
2.2638	18.506
2.2559	18.573
2.2481	18.5194
2.2403	18.5147
2.2326	18.6105
2.225	18.6665
2.2173	18.5971
2.2098	18.6696
2.2023	18.7434
2.1948	18.8055
2.1874	18.809
2.18	18.7966
2.1727	18.8802
2.1655	18.8036
2.1583	18.9215
2.1511	18.929
2.144	18.9914
2.1369	19.0856
2.1299	19.0558
2.1229	19.0779
2.116	19.0394
2.1091	19.2612
2.1023	19.2417
2.0955	19.3218
2.0887	19.1627
2.082	19.315
2.06	19.4254
2.028	19.6849
1.996	20.2214
1.964	20.3051
1.932	20.6378
1.9	21.0393
1.868	21.2745
1.836	21.3376
1.804	21.8781
1.772	21.8134
1.74	22.2111
1.708	22.2708
1.676	22.3426
1.644	22.1332
1.612	22.0498
1.58	21.6541
1.548	21.2181
1.516	20.6837
1.484	19.9139
1.452	19.4434
1.42	18.7833
1.388	18.1399
1.356	17.638
1.324	17.1999
1.292	16.6545
1.26	16.2967
1.228	15.9529
1.196	15.4807
1.164	14.9648
1.132	14.4078
1.1	12.9689
1.068	12.2654
1.036	11.5447
1.004	11.5103
0.972	11.8887
0.94	12.9732
0.908	14.5044
0.876	16.0437
0.844	17.4831
0.812	19.082
0.795	19.0692
0.787	19.4699
0.779	19.7748
0.771	19.8238
0.763	20.1191
0.755	20.2717
0.747	20.7573
0.739	20.9539
0.731	20.9132
0.723	21.1306
0.715	21.3921
0.707	21.5512
0.699	21.6759
0.691	21.9323
0.683	22.1383
0.675	22.0569
0.667	22.1476
0.659	22.0239
0.651	21.818
0.643	22.0162
0.635	21.8384
0.627	22.0347
0.619	22.0526
0.611	22.3742
0.603	22.5647
0.595	22.6525
0.587	22.5754
0.579	22.5076
0.571	22.403
0.563	22.3934
0.555	22.2732
0.547	21.983
0.539	21.8264
0.531	21.3363
0.523	21.0924
0.515	20.7135
0.507	20.1494
0.499	19.9004
0.491	19.5939
0.483	18.985
0.475	18.7357
0.467	18.2899
0.459	17.5484
0.451	17.4816
0.443	17.2431
0.435	17.0826
0.427	16.7835
0.419	16.2977
0.411	15.8676
0.403	15.1907
