Name: Dolomitic Marble
Type: Rocks
Class: Metamorphic
Subclass: Marble
Particle Size: 0-75 Micrometer
Owner: JHU
Wavelength Range: All
Origin: Sample No. 459, The Hunt and Salisbury Collection at the U.S.
Description: A medium-grained rock containing anhedral and some euhedral
Measurement: Directional (10 Degree) Hemispherical Reflectance
X Units: Wavelength (micrometers)
Y Units: Reflectance (percent)
wavelength	value
14.983	28.519
14.645	30.286
14.321	23.563
14.011	1.518
13.715	14.005
13.43	32.966
13.158	34.654
12.896	31.322
12.644	32.766
12.402	34.701
12.169	36.195
11.945	35.351
11.729	19.373
11.52	8.5045
11.319	5.9794
11.125	28.124
10.937	32.64
10.755	29.971
10.58	28.973
10.41	31.157
10.245	29.511
10.086	27.796
9.931	25.961
9.781	25.618
9.636	29.041
9.495	31.549
9.358	30.352
9.225	25.553
9.095	30.949
8.969	31.606
8.847	30.149
8.727	26.115
8.612	19.432
8.499	17.558
8.389	18.066
8.281	20.322
8.177	20.28
8.075	18.711
7.976	18.84
7.879	17.3
7.784	16.024
7.692	14.262
7.601	11.506
7.513	10.359
7.427	8.8418
7.343	6.9621
7.261	5.0671
7.18	4.3307
7.102	5.0527
7.025	5.3492
6.949	5.2109
6.875	5.4839
6.803	5.8849
6.733	6.4331
6.663	7.3692
6.596	8.7096
6.529	10.348
6.464	12.187
6.4	10.335
6.338	6.4523
6.276	4.0188
6.216	3.3926
6.157	3.144
6.099	3.4682
6.042	4.3894
5.986	5.8475
5.931	7.2193
5.878	8.4792
5.825	8.8631
5.773	8.8557
5.722	9.8563
5.672	11.95
5.623	12.288
5.574	2.3172
5.527	9.0859
5.48	18.009
5.434	27.813
5.389	34.252
5.345	38.586
5.301	41.82
5.258	44.315
5.215	46.34
5.174	47.802
5.133	48.814
5.093	45.678
5.053	50.002
5.014	50.843
4.975	51.014
4.937	51.136
4.9	51.454
4.863	51.788
4.827	52.037
4.791	52.094
4.756	51.088
4.721	46.754
4.687	38.206
4.654	37.612
4.62	43.991
4.588	46.741
4.556	47.678
4.524	48.073
4.492	49.099
4.461	50.858
4.431	52.249
4.401	53.406
4.371	53.77
4.342	52.722
4.313	52.433
4.284	52.77
4.256	52.686
4.229	52.235
4.201	51.807
4.174	50.734
4.147	49.082
4.121	46.481
4.095	43.125
4.069	37.935
4.044	28.881
4.019	16.062
3.994	7.6489
3.97	5.5441
3.945	9.1733
3.921	13.445
3.898	15.344
3.875	16.21
3.852	17.561
3.829	21.443
3.806	28.548
3.784	40.659
3.762	46.809
3.74	50.417
3.719	52.267
3.698	53.058
3.677	53.364
3.656	53.192
3.636	52.618
3.615	51.686
3.595	49.651
3.575	44.678
3.556	41.728
3.536	34.507
3.517	21.604
3.498	15.387
3.479	11.784
3.461	16.535
3.442	19.178
3.424	20.155
3.406	19.999
3.388	19.358
3.371	18.733
3.353	15.848
3.336	25.793
3.319	35.69
3.302	39.642
3.285	46.092
3.269	48.521
3.252	49.938
3.236	50.912
3.22	51.687
3.204	52.295
3.188	52.583
3.173	52.218
3.157	50.723
3.142	50.435
3.127	50.923
3.112	49.877
3.097	50.407
3.082	51.716
3.067	52.463
3.053	53.045
3.039	53.456
3.025	53.867
3.011	54.171
2.997	54.316
2.983	54.422
2.969	54.431
2.956	54.506
2.942	54.467
2.929	54.586
2.916	54.739
2.903	54.913
2.89	55.202
2.877	55.46
2.864	55.754
2.852	55.884
2.839	56.043
2.827	55.761
2.814	55.298
2.802	53.998
2.79	51.836
2.778	53.13
2.766	55.924
2.755	57.568
2.743	58.451
2.731	58.968
2.72	59.539
2.708	60.708
2.697	61.527
2.686	62.24
2.675	62.505
2.664	62.638
2.653	62.929
2.642	63.02
2.632	62.886
2.621	62.831
2.61	62.977
2.6	62.865
2.59	62.546
2.579	62.141
2.569	61.549
2.559	60.13
2.549	57.201
2.539	54.183
2.529	54.477
2.519	56.11
2.509	57.078
2.5	57.499
2.49	58.04
2.481	58.851
2.471	59.871
2.462	60.879
2.452	61.676
2.443	62.217
2.434	62.595
2.425	62.996
2.416	63.215
2.407	63.331
2.398	63.274
2.389	63.374
2.38	63.268
2.372	62.977
2.363	62.28
2.354	60.973
2.346	59.684
2.337	59.334
2.329	59.676
2.321	60.334
2.312	60.82
2.304	61.016
2.296	61.384
2.288	61.655
2.28	62.135
2.272	62.644
2.264	62.923
2.256	63.242
2.248	63.543
2.24	63.615
2.233	63.893
2.225	63.94
2.217	63.985
2.21	64.053
2.202	64.141
2.195	64.149
2.187	64.221
2.18	64.229
2.173	64.225
2.166	64.161
2.158	64.246
2.151	64.159
2.144	64.181
2.137	64.444
2.13	64.371
2.123	64.451
2.116	64.534
2.109	64.462
2.102	64.441
2.095	64.607
2.089	64.43
2.082	64.797
2.06	65.095
2.028	64.215
1.996	63.639
1.964	63.202
1.932	63.222
1.9	62.992
1.868	63.136
1.836	63.763
1.804	63.492
1.772	62.392
1.74	62.827
1.708	63.86
1.676	63.465
1.644	63.553
1.612	63.029
1.58	63.669
1.548	62.527
1.516	63.227
1.484	62.43
1.452	63.286
1.42	63.41
1.388	62.194
1.356	63.206
1.324	62.785
1.292	63.053
1.26	63.706
1.228	63.377
1.196	62.375
1.164	62.038
1.132	62.773
1.1	62.924
1.068	62.293
1.036	63.223
1.004	63.212
0.972	62.7
0.94	62.981
0.908	63.16
0.876	62.684
0.844	62.268
0.812	62.163
0.795	62.315
0.787	61.909
0.779	62.622
0.771	62.245
0.763	62.915
0.755	62.447
0.747	62.316
0.739	62.35
0.731	62.443
0.723	62.287
0.715	62.692
0.707	62.32
0.699	62.819
0.691	63.256
0.683	63.256
0.675	63.236
0.667	62.894
0.659	63.662
0.651	62.736
0.643	63.54
0.635	62.796
0.627	62.976
0.619	64.128
0.611	63.561
0.603	63.157
0.595	62.686
0.587	63.22
0.579	63.426
0.571	63.908
0.563	63.36
0.555	63.03
0.547	62.911
0.539	63.4
0.531	62.796
0.523	63.232
0.515	62.617
0.507	62.949
0.499	62.3
0.491	62.848
0.483	62.932
0.475	62.114
0.467	61.872
0.459	63.848
0.451	63.001
0.443	63.064
0.435	63.335
0.427	62.682
0.419	62.856
0.411	62.204
0.403	62.025
