Name: Dolomitic Limestone
Type: Rocks
Class: Sedimentary
Subclass: Limestone
Particle Size: 500 - 1500 Micrometers
Sample No.: limestone.2
Owner: JHU
Wavelength Range: All
Origin: Sample No. 353,  The Hunt and Salisbury Collection at the U.S.
Description: This somewhat heterogeneous sample consists of bands
Measurement: Directional (10 Degree) Hemispherical Reflectance
X Units: Wavelength (micrometers)
Y Units: Reflectance (percent)
wavelength	value
14.0112	2.7423
13.7147	2.5546
13.4304	2.4811
13.1577	3.1694
12.8959	3.887
12.6443	3.7082
12.4023	3.7621
12.1694	2.8836
11.945	3.1817
11.7289	3.3362
11.5203	4.2803
11.3191	6.7114
11.1248	10.4137
10.937	5.8003
10.7555	5.3141
10.5799	5.2459
10.4099	5.1438
10.2454	4.982
10.0859	5.0441
9.9313	5.3687
9.7814	5.7019
9.636	6.0575
9.4948	6.9116
9.3577	9.7423
9.2245	11.287
9.095	10.7678
8.9691	10.7814
8.8467	10.379
8.7275	9.9177
8.6116	8.5687
8.4986	10.216
8.3886	10.1096
8.2814	11.1561
8.1769	10.5672
8.075	8.7685
7.9756	7.8881
7.8786	7.2846
7.784	6.8049
7.6916	6.4281
7.6014	6.537
7.5133	6.3594
7.4272	6.3439
7.343	6.3217
7.2607	6.1506
7.1803	6.1602
7.1016	6.4932
7.0246	9.3701
6.9493	9.382
6.8755	9.382
6.8034	9.8639
6.7327	10.4345
6.6634	11.4956
6.5956	13.2383
6.5292	15.2589
6.464	18.0608
6.4002	19.8329
6.3376	15.1093
6.2762	6.4238
6.216	3.6891
6.157	2.9101
6.099	2.1474
6.0421	1.8939
5.9863	1.7349
5.9315	1.6162
5.8777	1.5849
5.8249	1.594
5.773	1.5555
5.722	1.5889
5.6719	1.603
5.6227	1.5465
5.5744	1.521
5.5268	1.436
5.4801	1.4076
5.4341	1.7799
5.3889	2.1081
5.3445	2.2792
5.3008	2.472
5.2578	2.9123
5.2154	3.7265
5.1738	4.3732
5.1328	4.7938
5.0925	4.9211
5.0528	4.1781
5.0137	5.4175
4.9752	6.0651
4.9373	7.0507
4.9	8.6917
4.8632	11.3298
4.827	12.7244
4.7913	13.4609
4.7561	13.7989
4.7215	12.8733
4.6873	9.2373
4.6536	5.5842
4.6205	5.2634
4.5877	6.3076
4.5555	8.2221
4.5237	9.1834
4.4923	11.0307
4.4614	9.6763
4.4309	8.8877
4.4008	11.6966
4.3711	15.5833
4.3418	15.2385
4.3129	12.2703
4.2844	11.563
4.2563	13.0685
4.2285	13.4284
4.2011	14.7473
4.174	14.336
4.1473	12.4728
4.1209	12.3727
4.0949	11.3513
4.0692	9.1842
4.0438	6.8476
4.0187	4.8718
3.994	3.6676
3.9695	2.9797
3.9453	2.863
3.9214	2.9374
3.8979	3.2663
3.8746	3.3938
3.8515	3.8578
3.8288	4.0662
3.8063	3.5401
3.7841	3.9315
3.7621	5.024
3.7404	8.8472
3.7189	12.2337
3.6977	14.706
3.6767	17.3457
3.656	18.7432
3.6355	19.3241
3.6152	19.3011
3.5951	18.8728
3.5753	17.7438
3.5557	12.9603
3.5363	11.5992
3.5171	7.8773
3.4981	4.6772
3.4793	3.8705
3.4607	3.6422
3.4423	3.6183
3.4241	4.1114
3.4061	4.2801
3.3883	4.4502
3.3707	4.7162
3.3533	4.3217
3.336	4.1494
3.3189	4.0745
3.302	4.098
3.2853	7.2622
3.2687	9.7832
3.2523	11.4765
3.2361	12.8132
3.22	13.6812
3.204	14.2004
3.1883	14.4275
3.1727	14.4889
3.1572	14.1282
3.1419	12.7392
3.1268	12.2983
3.1117	12.1851
3.0969	11.8609
3.0821	11.2626
3.0675	11.6405
3.0531	11.9378
3.0388	11.9492
3.0246	12.3511
3.0105	12.6091
2.9966	12.6474
2.9828	12.5213
2.9692	12.4509
2.9556	12.4622
2.9422	12.4433
2.9289	12.4381
2.9157	12.6237
2.9027	12.8745
2.8897	13.1975
2.8769	13.679
2.8642	14.2052
2.8516	14.7543
2.8391	15.4407
2.8267	15.9951
2.8144	16.1192
2.8022	14.6801
2.7902	11.2624
2.7782	8.1828
2.7664	7.2431
2.7546	7.7213
2.7429	9.4514
2.7314	14.1162
2.7199	23.3537
2.7085	32.8759
2.6973	36.67
2.6861	38.7999
2.675	44.465
2.664	49.2882
2.6531	52.7614
2.6423	54.3277
2.6315	55.0074
2.6209	55.5933
2.6103	55.9263
2.5999	56.0407
2.5895	55.6783
2.5792	54.5901
2.569	51.9673
2.5588	48.4603
2.5487	42.2951
2.5388	31.7772
2.5289	24.4992
2.519	21.5255
2.5093	21.6741
2.4996	23.3786
2.49	25.4928
2.4805	28.3209
2.471	29.4324
2.4616	30.0376
2.4523	31.8935
2.4431	35.6388
2.4339	39.7947
2.4248	43.8805
2.4157	48.0825
2.4068	50.1648
2.3979	52.1083
2.389	53.9056
2.3802	54.8351
2.3715	56.43
2.3629	55.2856
2.3543	51.8686
2.3458	44.6463
2.3373	37.9892
2.3289	33.2441
2.3206	32.3708
2.3123	33.5149
2.3041	35.1859
2.2959	37.121
2.2878	39.0082
2.2798	40.2352
2.2718	40.9848
2.2638	42.7222
2.2559	45.8508
2.2481	49.1498
2.2403	51.4396
2.2326	52.2646
2.225	51.6932
2.2173	52.3004
2.2098	55.1555
2.2023	58.4847
2.1948	61.6779
2.1874	64.3042
2.18	65.8864
2.1727	66.6197
2.1655	66.8547
2.1583	66.6427
2.1511	65.8495
2.144	65.1993
2.1369	65.1543
2.1299	65.6814
2.1229	66.7468
2.116	67.779
2.1091	68.7649
2.1023	69.4387
2.0955	70.0175
2.0887	70.4799
2.082	70.9738
2.06	71.8428
2.028	72.6251
1.996	70.6738
1.964	65.9012
1.932	68.3498
1.9	69.5524
1.868	72.4375
1.836	70.9503
1.804	73.9874
1.772	75.6458
1.74	75.1455
1.708	74.8122
1.676	74.5721
1.644	73.9922
1.612	73.2131
1.58	73.0494
1.548	72.2354
1.516	70.3759
1.484	68.5118
1.452	66.8827
1.42	63.4384
1.388	61.7201
1.356	60.74
1.324	59.3961
1.292	57.7637
1.26	57.6492
1.228	57.3104
1.196	55.6371
1.164	55.5844
1.132	55.4149
1.1	55.0466
1.068	53.5615
1.036	53.0631
1.004	53.4495
0.972	54.3782
0.94	56.9257
0.908	58.7213
0.876	61.2947
0.844	63.6865
0.812	65.2156
0.795	67.3766
0.787	67.5772
0.779	67.4071
0.771	67.8118
0.763	68.0855
0.755	67.1625
0.747	67.2028
0.739	66.9423
0.731	66.5945
0.723	66.4762
0.715	65.8965
0.707	65.401
0.699	65.0307
0.691	64.8805
0.683	64.4968
0.675	64.3647
0.667	63.9817
0.659	63.5956
0.651	63.2038
0.643	62.4743
0.635	62.6413
0.627	62.0912
0.619	61.8199
0.611	60.7248
0.603	61.1689
0.595	60.8001
0.587	59.9667
0.579	60.2466
0.571	58.9506
0.563	58.5328
0.555	56.7332
0.547	55.7292
0.539	54.4387
0.531	53.1962
0.523	51.9298
0.515	50.466
0.507	48.4353
0.499	46.92
0.491	45.2159
0.483	44.5895
0.475	43.5167
0.467	42.0515
0.459	42.6894
0.451	41.4449
0.443	40.1028
0.435	38.2735
0.427	36.2469
0.419	34.2865
0.411	32.245
0.403	30.0521
