Name: Diopside CaMgSi2O6
Type: Mineral
Class: Silicates
Subclass: Inosilicates (Chain Silicates) (Pyroxene Group)
Particle Size: Fine (0-74  Micrometers)
Sample No.: diopside.1
Owner: JHU
Wavelength Range: IR
Origin: Sample from St. Lawrence Co., New York via the Smithsonian
Description: Sample consisted of two green subhedral crystals 1-2 cm
Measurement: Bidirectional reflectance
X Units: Wavelength (micrometers)
Y Units: Reflectance (percent)
wavelength	value
25.0442	2.4512
24.3388	2.5156
23.6719	2.1064
23.0407	2.4951
22.4422	2.4951
21.8741	2.5969
21.334	2.7854
20.8199	2.8433
20.33	2.5041
19.8627	2.7307
19.4163	2.5456
18.9896	2.5044
18.5812	2.5874
18.19	2.8122
17.815	3.1699
17.4551	3.4858
17.1094	3.1851
16.7772	2.5049
16.4576	1.9602
16.15	1.5723
15.8537	1.2012
15.568	1.1602
15.2925	1.3481
15.0265	1.4521
14.7697	1.3135
14.5214	2.2869
14.2814	2.9529
14.0492	3.6335
13.8244	4.2021
13.6067	4.4824
13.3957	4.4165
13.1912	4.1265
12.9929	4.0918
12.8004	3.8845
12.6135	3.5967
12.432	3.3398
12.2557	2.957
12.0843	2.5095
11.9176	2.196
11.7555	2.1472
11.5977	2.4475
11.444	2.5378
11.2944	2.5703
11.1487	2.5024
11.0067	2.4893
10.8682	2.5088
10.7332	2.2202
10.6015	2.4973
10.473	2.3755
10.3476	2.477
10.2251	2.0339
10.1056	1.2969
9.98873	1.2717
9.87458	1.5532
9.763	1.7769
9.65392	1.6235
9.54724	1.5466
9.44291	1.8467
9.34082	2.3169
9.24091	2.449
9.14312	2.5295
9.04739	2.687
8.95363	3.0554
8.8618	3.5351
8.77183	4.1177
8.68368	3.5637
8.59727	2.7026
8.51257	1.9863
8.42951	1.7295
8.34807	1.9075
8.26819	2.3108
8.18981	2.8437
8.11292	3.3647
8.03745	3.9114
7.96337	4.5146
7.89064	5.0561
7.81924	5.4795
7.74911	5.9656
7.68023	6.4433
7.61256	6.8032
7.54608	7.0095
7.48074	7.3435
7.41653	7.5993
7.35341	7.6992
7.29136	7.6247
7.23034	7.6789
7.17033	7.9433
7.11132	8.2849
7.05327	8.7556
6.99616	9.0281
6.93996	9.2173
6.88467	9.261
6.83024	8.9123
6.77667	8.5617
6.72393	8.041
6.67201	7.4419
6.62089	7.425
6.57054	7.239
6.52095	7.0351
6.4721	6.9829
6.42398	7.1955
6.37657	7.8237
6.32986	8.2656
6.28382	8.3855
6.23845	8.6562
6.19373	8.9331
6.14965	8.8052
6.10619	8.3782
6.06334	8.7016
6.02109	8.9194
5.97942	9.7693
5.93832	11.1809
5.89778	12.2431
5.8578	12.4262
5.81835	12.7092
5.77943	13.2548
5.74103	13.6413
5.70314	14.019
5.66574	14.3274
5.62883	14.4519
5.5924	14.456
5.55644	14.3713
5.52093	14.2146
5.48588	13.8464
5.45127	13.2553
5.41709	12.5149
5.38334	12.1513
5.35	11.9541
5.31708	11.8427
5.28456	11.5988
5.25243	11.6865
5.2207	11.8132
5.18934	11.581
5.15836	11.1667
5.12775	10.5871
5.09749	9.6706
5.0676	9.2458
5.03805	9.8867
5.00884	10.7387
4.97998	10.9892
4.95144	11.0334
4.92322	11.24
4.89533	11.3537
4.86775	11.6115
4.84048	12.0652
4.81351	12.5068
4.78684	12.9265
4.76047	13.0427
4.73439	13.3325
4.70859	14.0217
4.68306	14.5754
4.65782	14.8151
4.63284	15.1877
4.60814	15.5747
4.58369	16.0583
4.5595	16.4729
4.53557	16.8752
4.51188	17.3481
4.48845	17.5788
4.46525	17.7182
4.44229	17.7927
4.41957	17.8654
4.39708	17.9538
4.37481	18.0251
4.35277	18.0742
4.33096	18.1391
4.30935	18.1709
4.28797	18.2314
4.26679	18.2937
4.24583	18.3547
4.22506	18.4008
4.2045	18.446
4.18414	18.4707
4.16398	18.4953
4.14401	18.519
4.12423	18.5346
4.10464	18.5607
4.08523	18.5827
4.066	18.6125
4.04696	18.623
4.02809	18.6293
4.0094	18.6262
3.99088	18.6101
3.97253	18.6184
3.95435	18.6606
3.93634	18.7067
3.91848	18.726
3.90079	18.7453
3.88326	18.7697
3.86589	18.7617
3.84867	18.7534
3.8316	18.7619
3.81468	18.7656
3.79791	18.7626
3.78129	18.7663
3.76482	18.7531
3.74848	18.7448
3.73229	18.7382
3.71624	18.7299
3.70032	18.6921
3.68454	18.675
3.6689	18.6577
3.65338	18.6477
3.638	18.6303
3.62275	18.6066
3.60762	18.5727
3.59262	18.5544
3.57775	18.5336
3.56299	18.4924
3.54836	18.4348
3.53385	18.3566
3.51945	18.1665
3.50517	17.6491
3.49101	17.7795
3.47696	17.8486
3.46303	17.8493
3.4492	17.6806
3.43549	17.468
3.42188	16.9751
3.40838	16.9987
3.39499	17.4028
3.38171	17.4482
3.36852	17.5578
3.35544	17.7819
3.34246	18.0061
3.32958	18.1098
3.3168	18.1545
3.30411	18.1875
3.29153	18.1892
3.27903	18.1848
3.26664	18.1713
3.25433	18.1435
3.24212	18.1306
3.23	18.1049
3.21797	18.0805
3.20603	18.0507
3.19418	18.0061
3.18241	17.9748
3.17074	17.9428
3.15914	17.9099
3.14763	17.874
3.13621	17.8193
3.12487	17.8066
3.11361	17.7731
3.10243	17.748
3.09133	17.707
3.0803	17.6999
3.06936	17.6787
3.0585	17.6533
3.04771	17.6511
3.037	17.6328
3.02636	17.6005
3.0158	17.5688
3.00531	17.4912
2.99489	17.4502
2.98454	17.4189
2.97427	17.3862
2.96407	17.3796
2.95393	17.3774
2.94387	17.3906
2.93387	17.3964
2.92394	17.4233
2.91408	17.4467
2.90429	17.4589
2.89456	17.4648
2.88489	17.4868
2.87529	17.5293
2.86576	17.6008
2.85628	17.6787
2.84687	17.7272
2.83752	17.7758
2.82823	17.8193
2.81901	17.9023
2.80984	17.9716
2.80073	18.0043
2.79168	18.0102
2.78269	18.0419
2.77376	18.1225
2.76488	18.2041
2.75606	18.2441
2.7473	18.207
2.73859	18.5224
2.72994	18.2876
2.72134	17.3256
2.7128	19.1875
2.70431	19.6147
2.69587	19.8339
2.68748	20.0151
2.67915	20.2016
2.67087	20.2458
2.66264	20.3544
2.65446	20.3437
2.64633	20.3034
2.63825	20.3002
2.63021	20.2446
2.62223	20.1982
2.6143	20.1589
2.60641	20.0986
2.59857	20.0864
2.59078	20.0122
2.58304	19.9716
2.57534	19.9216
2.56768	19.8813
2.56008	19.8195
2.55251	19.7119
2.54499	19.6577
2.53752	19.6281
2.53009	19.5529
2.5227	19.4458
2.51536	19.3459
2.50806	19.3068
2.5008	19.2336
2.49358	19.1748
2.4864	19.062
2.47927	19.0236
2.47218	18.8916
2.46512	18.7836
2.45811	18.7775
2.45114	18.7167
2.4442	18.6623
2.43731	18.5917
2.43045	18.5166
2.42363	18.4868
2.41685	18.4611
2.41011	18.4826
2.40341	18.3896
2.39674	18.3012
2.39011	18.2841
2.38352	18.2421
2.37696	18.2558
2.37044	18.2045
2.36395	18.1972
2.35751	18.1728
2.35109	18.1074
2.34471	18.1516
2.33836	18.1164
2.33205	18.0969
2.32578	18.0683
2.31953	18.0568
2.31332	18.0156
2.30714	18.0361
2.301	18.0761
2.29489	18.0771
2.28881	18.0488
2.28276	18.0664
2.27675	18.0825
2.27076	18.1142
2.26481	18.145
2.25889	18.144
2.253	18.1513
2.24714	18.1215
2.24131	18.1484
2.23551	18.2075
2.22974	18.2099
2.224	18.2368
2.21829	18.2504
2.21261	18.2954
2.20696	18.269
2.20134	18.3417
2.19574	18.3134
2.19018	18.3676
2.18464	18.395
2.17913	18.3798
2.17365	18.4096
2.16819	18.4609
2.16277	18.5336
2.15737	18.5996
2.15199	18.5004
2.14665	18.5585
2.14133	18.5532
2.13603	18.5986
2.13077	18.6718
2.12552	18.6455
2.12031	18.6982
2.11512	18.6997
2.10995	18.7275
2.10481	18.7929
2.0997	18.8486
2.09461	18.8349
2.08954	18.9414
2.0845	18.9145
2.07948	18.9199
