Name: Montmorillonite (Na,Ca)0.33(Al,Mg)2Si4O10(OH)2.nH2O
Type: Mineral
Class: Silicates
Subclass: Phyllosilicates (Sheet Silicates); (SmectiteGroup)
Particle Size: Fine  (0-2 Micrometers)
Sample No.: montmor.2
Owner: JHU
Wavelength Range: IR
Origin: Gonzales Co., Texas via the Hunt and Salisbury Collection
Description: The sample was a white, earthy clay. The bulk sample
Measurement: Bidirectional reflectance
X Units: Wavelength (micrometers)
Y Units: Reflectance (percent)
wavelength	value
25.0442	1.8608
24.3388	2.0813
23.6719	2.0647
23.0407	2.1958
22.4422	2.1904
21.8741	2.3049
21.334	2.7239
20.8199	2.6433
20.33	1.9844
19.8627	1.8213
19.4163	2.0832
18.9896	2.394
18.5812	2.4299
18.19	2.2422
17.815	2.1008
17.4551	1.9275
17.1094	1.7378
16.7772	1.5193
16.4576	1.1704
16.15	0.9863
15.8537	0.8647
15.568	0.6118
15.2925	0.5215
15.0265	0.5872
14.7697	0.603
14.5214	0.6675
14.2814	0.7124
14.0492	0.7668
13.8244	0.8442
13.6067	0.9109
13.3957	1.0051
13.1912	1.0395
12.9929	1.0718
12.8004	1.0674
12.6135	1.0615
12.432	1.116
12.2557	1.1191
12.0843	1.0684
11.9176	0.9922
11.7555	1.0129
11.5977	1.0977
11.444	1.1516
11.2944	1.167
11.1487	1.1868
11.0067	1.1338
10.8682	1.0679
10.7332	1.1011
10.6015	1.1501
10.473	1.2312
10.3476	1.2959
10.2251	1.3889
10.1056	1.5095
9.98873	1.6665
9.87458	1.8369
9.763	2.0642
9.65392	2.3562
9.54724	2.7085
9.44291	3.0911
9.34082	3.2827
9.24091	3.0444
9.14312	2.531
9.04739	2.1753
8.95363	2.1689
8.8618	2.261
8.77183	2.292
8.68368	2.2632
8.59727	2.1648
8.51257	2.0466
8.42951	1.8657
8.34807	1.4387
8.26819	0.7986
8.18981	0.3459
8.11292	0.2166
8.03745	0.2922
7.96337	0.4438
7.89064	0.6409
7.81924	0.855
7.74911	1.0837
7.68023	1.3022
7.61256	1.5151
7.54608	1.6921
7.48074	1.8821
7.41653	2.0425
7.35341	2.1882
7.29136	2.3247
7.23034	2.4663
7.17033	2.5974
7.11132	2.7029
7.05327	2.7739
6.99616	2.8469
6.93996	2.9739
6.88467	3.0996
6.83024	3.196
6.77667	3.2861
6.72393	3.374
6.67201	3.4434
6.62089	3.49
6.57054	3.4858
6.52095	3.4634
6.4721	3.4043
6.42398	3.2646
6.37657	3.0539
6.32986	2.697
6.28382	2.1294
6.23845	1.4714
6.19373	1.0171
6.14965	0.7949
6.10619	0.7029
6.06334	0.7266
6.02109	0.8706
5.97942	1.1272
5.93832	1.4956
5.89778	1.9692
5.8578	2.4609
5.81835	2.8645
5.77943	3.2331
5.74103	3.5469
5.70314	3.7861
5.66574	3.9365
5.62883	3.9766
5.5924	3.9333
5.55644	3.8188
5.52093	3.6767
5.48588	3.5737
5.45127	3.5664
5.41709	3.6594
5.38334	3.8105
5.35	3.9983
5.31708	4.1763
5.28456	4.3149
5.25243	4.4216
5.2207	4.4978
5.18934	4.5803
5.15836	4.6841
5.12775	4.81
5.09749	4.9714
5.0676	5.1704
5.03805	5.3916
5.00884	5.6191
4.97998	5.824
4.95144	6.0173
4.92322	6.1692
4.89533	6.293
4.86775	6.4114
4.84048	6.4892
4.81351	6.5776
4.78684	6.6601
4.76047	6.7517
4.73439	6.8244
4.70859	6.897
4.68306	6.9565
4.65782	7.0027
4.63284	7.0539
4.60814	7.0925
4.58369	7.114
4.5595	7.1311
4.53557	7.1418
4.51188	7.1565
4.48845	7.1631
4.46525	7.1826
4.44229	7.1899
4.41957	7.1963
4.39708	7.2046
4.37481	7.2073
4.35277	7.2236
4.33096	7.2456
4.30935	7.2712
4.28797	7.3205
4.26679	7.3755
4.24583	7.4367
4.22506	7.5097
4.2045	7.5881
4.18414	7.6653
4.16398	7.7617
4.14401	7.8462
4.12423	7.9438
4.10464	8.0686
4.08523	8.1929
4.066	8.3279
4.04696	8.4741
4.02809	8.6133
4.0094	8.7461
3.99088	8.8508
3.97253	8.9133
3.95435	8.936
3.93634	8.9463
3.91848	8.9302
3.90079	8.9023
3.88326	8.8796
3.86589	8.8327
3.84867	8.7768
3.8316	8.7131
3.81468	8.6467
3.79791	8.552
3.78129	8.4538
3.76482	8.3493
3.74848	8.2163
3.73229	8.0818
3.71624	7.9531
3.70032	7.831
3.68454	7.6938
3.6689	7.5832
3.65338	7.459
3.638	7.3247
3.62275	7.1921
3.60762	7.0425
3.59262	6.894
3.57775	6.7248
3.56299	6.5576
3.54836	6.3708
3.53385	6.1921
3.51945	6.0054
3.50517	5.8093
3.49101	5.6247
3.47696	5.4221
3.46303	5.229
3.4492	5.0163
3.43549	4.8013
3.42188	4.5857
3.40838	4.3843
3.39499	4.2065
3.38171	4.0085
3.36852	3.8223
3.35544	3.6233
3.34246	3.4292
3.32958	3.2561
3.3168	3.0745
3.30411	2.9055
3.29153	2.7385
3.27903	2.5891
3.26664	2.404
3.25433	2.2605
3.24212	2.1138
3.23	1.9863
3.21797	1.8613
3.20603	1.7429
3.19418	1.6343
3.18241	1.5173
3.17074	1.4238
3.15914	1.3567
3.14763	1.27
3.13621	1.1858
3.12487	1.1221
3.11361	1.0793
3.10243	1.0217
3.09133	0.9856
3.0803	0.9744
3.06936	0.9556
3.0585	0.9397
3.04771	0.9402
3.037	0.9285
3.02636	0.9102
3.0158	0.8774
3.00531	0.8594
2.99489	0.8269
2.98454	0.8022
2.97427	0.7749
2.96407	0.7524
2.95393	0.7412
2.94387	0.7251
2.93387	0.7012
2.92394	0.6802
2.91408	0.687
2.90429	0.6658
2.89456	0.6589
2.88489	0.6548
2.87529	0.6409
2.86576	0.6406
2.85628	0.626
2.84687	0.6101
2.83752	0.585
2.82823	0.5869
2.81901	0.5828
2.80984	0.5652
2.80073	0.53
2.79168	0.5078
2.78269	0.4578
2.77376	0.4121
2.76488	0.3977
2.75606	0.3879
2.7473	0.405
2.73859	0.4368
2.72994	0.49
2.72134	0.6294
2.7128	0.9089
2.70431	1.4358
2.69587	2.3389
2.68748	3.5325
2.67915	4.5588
2.67087	5.2942
2.66264	5.9038
2.65446	6.3218
2.64633	6.625
2.63825	6.8989
2.63021	7.1059
2.62223	7.272
2.6143	7.3909
2.60641	7.5195
2.59857	7.6284
2.59078	7.7407
2.58304	7.822
2.57534	7.8908
2.56768	7.9668
2.56008	8.0246
2.55251	8.0981
2.54499	8.1828
2.53752	8.2612
2.53009	8.3506
2.5227	8.4394
2.51536	8.5449
2.50806	8.644
2.5008	8.7524
2.49358	8.833
2.4864	8.9155
2.47927	8.9692
2.47218	9.0007
2.46512	9.0163
2.45811	9.0395
2.45114	9.0742
2.4442	9.1211
2.43731	9.2046
2.43045	9.3017
2.42363	9.394
2.41685	9.4931
2.41011	9.5454
2.40341	9.6177
2.39674	9.6987
2.39011	9.8091
2.38352	9.9028
2.37696	10.0349
2.37044	10.1728
2.36395	10.278
2.35751	10.414
2.35109	10.5757
2.34471	10.6738
2.33836	10.768
2.33205	10.8513
2.32578	11.0024
2.31953	11.1533
2.31332	11.3525
2.30714	11.5261
2.301	11.7197
2.29489	11.9189
2.28881	12.061
2.28276	12.1499
2.27675	12.2021
2.27076	12.2319
2.26481	12.122
2.25889	11.9765
2.253	11.7383
2.24714	11.53
2.24131	11.1967
2.23551	10.9924
2.22974	10.7038
2.224	10.5014
2.21829	10.2085
2.21261	10.1611
2.20696	10.4826
2.20134	11.0703
2.19574	11.6404
2.19018	12.1186
2.18464	12.4299
2.17913	12.7541
2.17365	12.9153
2.16819	13.1362
2.16277	13.1931
2.15737	13.2299
2.15199	13.2285
2.14665	13.2497
2.14133	13.2795
2.13603	13.2685
2.13077	13.2617
2.12552	13.2627
2.12031	13.2668
2.11512	13.2666
2.10995	13.2387
2.10481	13.2588
2.0997	13.2363
2.09461	13.3137
2.08954	13.3071
2.0845	13.2964
2.07948	13.3325
