Name: Spessartine Mn3Al2 (SiO4)3
Type: Mineral
Class: Silicates
Subclass: Nesosilicates (Framework silicates); GarnetGroup
Particle Size: Fine (0 - 74 Micrometers)
Sample No.: spessart.2
Owner: JHU
Wavelength Range: IR
Origin: Rutherford #2 mine, Amelia, Amelia Co., Virginia, USA via the
Description: The sample consisted of a group of 3 mm and smaller
Measurement: Bidirectional reflectance
X Units: Wavelength (micrometers)
Y Units: Reflectance (percent)
wavelength	value
25.044	0.8975
24.339	1.1392
23.672	1.4072
23.041	1.5571
22.442	2.2473
21.874	1.5034
21.334	2.1577
20.82	2.166
20.33	2.1372
19.863	2.0083
19.416	1.4639
18.99	1.2219
18.581	0.4092
18.19	0.6428
17.815	1.1519
17.455	1.5315
17.109	1.4702
16.777	0.9885
16.458	0.2046
16.15	0.3083
15.854	0.406
15.568	0.2637
15.292	0.8193
15.027	1.4136
14.77	1.8103
14.521	2.031
14.281	2.0984
14.049	1.977
13.824	1.9944
13.607	2.0413
13.396	1.8061
13.191	1.9128
12.993	1.8994
12.8	1.7649
12.614	1.5935
12.432	1.4443
12.256	1.2534
12.084	1.1296
11.918	1.0986
11.755	1.2351
11.598	1.5095
11.444	1.2283
11.294	1.438
11.149	1.563
11.007	1.2095
10.868	0.5308
10.733	0.6597
10.602	1.2285
10.473	1.8259
10.348	2.0825
10.225	2.22
10.106	2.2314
9.9887	2.1843
9.8746	2.4429
9.763	2.5886
9.6539	2.3655
9.5472	1.8025
9.4429	1.1824
9.3408	0.5464
9.2409	0.2178
9.1431	0.1875
9.0474	0.3208
8.9536	0.5183
8.8618	0.7556
8.7718	0.9834
8.6837	1.2385
8.5973	1.4832
8.5126	1.7761
8.4295	2.074
8.3481	2.3496
8.2682	2.6089
8.1898	2.9067
8.1129	3.2278
8.0374	3.5796
7.9634	3.9194
7.8906	4.2197
7.8192	4.4267
7.7491	4.5073
7.6802	4.4978
7.6126	4.5259
7.5461	4.5625
7.4807	4.5679
7.4165	4.5381
7.3534	4.5027
7.2914	4.6262
7.2303	4.8328
7.1703	5.0412
7.1113	5.3171
7.0533	5.4892
6.9962	5.5115
6.94	5.4629
6.8847	5.468
6.8302	5.5386
6.7767	5.7224
6.7239	5.9651
6.672	6.3276
6.6209	6.6435
6.5705	6.813
6.5209	6.9946
6.4721	7.23
6.424	7.4902
6.3766	7.7158
6.3299	7.8357
6.2838	7.8598
6.2385	7.8679
6.1937	7.8591
6.1496	7.8454
6.1062	7.7622
6.0633	7.6555
6.0211	7.4914
5.9794	7.2837
5.9383	6.8218
5.8978	6.1264
5.8578	5.4563
5.8184	4.9629
5.7794	4.6274
5.741	4.3909
5.7031	4.3442
5.6657	4.4255
5.6288	4.5176
5.5924	4.5913
5.5564	4.8035
5.5209	5.0798
5.4859	5.2849
5.4513	5.5752
5.4171	5.7385
5.3833	5.7629
5.35	5.7842
5.3171	5.8865
5.2846	6.1401
5.2524	6.4228
5.2207	6.7058
5.1893	7.0737
5.1584	7.5222
5.1277	8.0207
5.0975	8.437
5.0676	8.695
5.038	8.8752
5.0088	9.0317
4.98	9.1662
4.9514	9.2695
4.9232	9.3362
4.8953	9.4255
4.8678	9.5349
4.8405	9.6472
4.8135	9.7427
4.7868	9.8215
4.7605	9.8786
4.7344	9.9333
4.7086	9.9839
4.6831	10.042
4.6578	10.11
4.6328	10.167
4.6081	10.217
4.5837	10.272
4.5595	10.311
4.5356	10.356
4.5119	10.378
4.4884	10.428
4.4652	10.477
4.4423	10.53
4.4196	10.586
4.3971	10.642
4.3748	10.688
4.3528	10.737
4.331	10.784
4.3094	10.821
4.288	10.867
4.2668	10.925
4.2458	10.986
4.2251	11.065
4.2045	11.113
4.1841	11.172
4.164	11.219
4.144	11.267
4.1242	11.321
4.1046	11.39
4.0852	11.44
4.066	11.496
4.047	11.555
4.0281	11.604
4.0094	11.639
3.9909	11.665
3.9725	11.691
3.9544	11.714
3.9363	11.724
3.9185	11.737
3.9008	11.739
3.8833	11.748
3.8659	11.759
3.8487	11.774
3.8316	11.799
3.8147	11.832
3.7979	11.855
3.7813	11.906
3.7648	11.946
3.7485	11.985
3.7323	12.009
3.7162	12.038
3.7003	12.059
3.6845	12.083
3.6689	12.096
3.6534	12.128
3.638	12.151
3.6227	12.189
3.6076	12.219
3.5926	12.23
3.5777	12.235
3.563	12.233
3.5484	12.243
3.5338	12.219
3.5195	12.133
3.5052	11.843
3.491	11.934
3.477	12.036
3.463	12.037
3.4492	11.964
3.4355	11.823
3.4219	11.471
3.4084	11.507
3.395	11.792
3.3817	11.849
3.3685	11.919
3.3554	12.035
3.3425	12.086
3.3296	12.102
3.3168	12.122
3.3041	12.127
3.2915	12.108
3.279	12.088
3.2666	12.07
3.2543	12.039
3.2421	12.015
3.23	11.982
3.218	11.952
3.206	11.922
3.1942	11.88
3.1824	11.845
3.1707	11.805
3.1591	11.767
3.1476	11.733
3.1362	11.676
3.1249	11.647
3.1136	11.603
3.1024	11.562
3.0913	11.528
3.0803	11.503
3.0694	11.459
3.0585	11.427
3.0477	11.392
3.037	11.364
3.0264	11.326
3.0158	11.255
3.0053	11.221
2.9949	11.159
2.9845	11.135
2.9743	11.082
2.9641	11.04
2.9539	11
2.9439	10.983
2.9339	10.944
2.9239	10.891
2.9141	10.851
2.9043	10.817
2.8946	10.79
2.8849	10.742
2.8753	10.691
2.8658	10.673
2.8563	10.584
2.8469	10.42
2.8375	10.388
2.8282	10.079
2.819	9.3637
2.8098	8.6723
2.8007	7.4035
2.7917	5.521
2.7827	4.5969
2.7738	6.1367
2.7649	6.0701
2.7561	6.03
2.7473	6.1687
2.7386	7.2666
2.7299	10.525
2.7213	11.616
2.7128	12.048
2.7043	12.143
2.6959	12.221
2.6875	12.307
2.6791	12.28
2.6709	12.267
2.6626	12.323
2.6545	12.32
2.6463	12.325
2.6382	12.337
2.6302	12.272
2.6222	12.304
2.6143	12.256
2.6064	12.234
2.5986	12.228
2.5908	12.216
2.583	12.178
2.5753	12.171
2.5677	12.142
2.5601	12.145
2.5525	12.127
2.545	12.117
2.5375	12.096
2.5301	12.076
2.5227	12.057
2.5154	12.038
2.5081	12.041
2.5008	12.036
2.4936	12.019
2.4864	12.018
2.4793	12.044
2.4722	12.057
2.4651	12.047
2.4581	12.059
2.4511	12.065
2.4442	12.055
2.4373	12.037
2.4305	12.046
2.4236	12.052
2.4169	12.084
2.4101	12.094
2.4034	12.072
2.3967	12.092
2.3901	12.106
2.3835	12.097
2.377	12.115
2.3704	12.101
2.364	12.109
2.3575	12.102
2.3511	12.154
2.3447	12.128
2.3384	12.091
2.3321	12.002
2.3258	11.94
2.3195	12.093
2.3133	12.244
2.3071	12.309
2.301	12.387
2.2949	12.403
2.2888	12.47
2.2828	12.453
2.2767	12.462
2.2708	12.457
2.2648	12.479
2.2589	12.452
2.253	12.39
2.2471	12.452
2.2413	12.429
2.2355	12.5
2.2297	12.583
2.224	12.584
2.2183	12.635
2.2126	12.695
2.207	12.731
2.2013	12.718
2.1957	12.717
2.1902	12.767
2.1846	12.797
2.1791	12.807
2.1736	12.853
2.1682	12.886
2.1628	12.905
2.1574	12.92
2.152	12.891
2.1466	12.942
2.1413	12.969
2.136	12.995
2.1308	13.003
2.1255	13.031
2.1203	13.024
2.1151	13.077
2.11	13.102
2.1048	13.087
2.0997	13.142
2.0946	13.134
2.0895	13.232
2.0845	13.207
2.0795	13.213
