Name: Acmite NaFe+3 Si2O6
Type: Mineral
Class: Silicates
Subclass: Inosilicates (Pyroxene Group - single chain)
Particle Size: Solid
Sample No.: acmite.1
Owner: JHU
Wavelength Range: IR
Origin: Narsarsuk, Greenland via the Smithsonian (sample no. NMNH
Description: The sample consisted of black radiating acicular crystals
Measurement: Bidirectional reflectance
X Units: Wavelength (micrometers)
Y Units: Reflectance (percent)
wavelength	value
25.044	3.1133
24.339	16.4555
23.672	18.5478
23.041	22.0634
22.442	25.5453
21.874	28.0922
21.334	30.2675
20.82	31.4982
20.33	33.6259
19.863	36.0893
19.416	32.2143
18.99	31.2585
18.581	30.4975
18.19	26.6552
17.815	28.4042
17.455	27.5666
17.109	22.8862
16.777	16.8503
16.458	11.2324
16.15	12.1794
15.854	13.2065
15.568	14.0664
15.292	12.9599
15.027	12.3813
14.77	12.8867
14.521	13.1518
14.281	13.458
14.049	13.6425
13.824	13.916
13.607	13.7258
13.396	13.7927
13.191	14.1738
12.993	14.563
12.8	14.9282
12.614	15.1562
12.432	15.3503
12.256	15.5236
12.084	15.6313
11.918	15.7712
11.755	16.2334
11.598	15.655
11.444	15.696
11.294	16.3735
11.149	17.1648
11.007	17.9226
10.868	18.5598
10.733	19.3144
10.602	20.3393
10.473	22.6557
10.348	24.5532
10.225	26.1037
10.106	28.1889
9.989	30.1733
9.875	30.4074
9.763	28.1095
9.654	27.4521
9.547	27.0517
9.443	27.0405
9.341	27.3808
9.241	26.9123
9.143	26.8273
9.047	26.3532
8.954	25.0732
8.862	23.8403
8.772	22.0825
8.684	19.8024
8.597	17.9357
8.513	16.3486
8.43	13.8305
8.348	11.2212
8.268	9.4299
8.19	9.6748
8.113	10.1081
8.037	9.5952
7.963	8.2939
7.891	7.4465
7.819	7.1943
7.749	7.2248
7.68	7.4109
7.613	7.6662
7.546	7.8974
7.481	8.1052
7.417	8.3579
7.353	8.5508
7.291	8.7219
7.23	8.8584
7.17	8.9563
7.111	9.1032
7.053	9.1567
6.996	9.2993
6.94	9.4114
6.885	9.5027
6.83	9.5678
6.777	9.6758
6.724	9.7185
6.672	9.9006
6.621	9.9809
6.571	10.1621
6.521	10.1611
6.472	10.3154
6.424	10.3891
6.377	10.4148
6.33	10.5031
6.284	10.5515
6.238	10.5969
6.194	10.6201
6.15	10.6374
6.106	10.6511
6.063	10.5422
6.021	10.299
5.979	10.2849
5.938	10.1841
5.898	10.1032
5.858	10.2026
5.818	10.2466
5.779	10.1821
5.741	10.2309
5.703	10.2478
5.666	10.2505
5.629	10.2859
5.592	10.2939
5.556	10.3327
5.521	10.3784
5.486	10.3593
5.451	10.4043
5.417	10.4743
5.383	10.4189
5.35	10.4289
5.317	10.4082
5.285	10.4211
5.252	10.4109
5.221	10.3908
5.189	10.406
5.158	10.3982
5.128	10.3901
5.097	10.3716
5.068	10.3447
5.038	10.3354
5.009	10.3152
4.98	10.3142
4.951	10.3303
4.923	10.3022
4.895	10.3044
4.868	10.3
4.84	10.2883
4.814	10.2712
4.787	10.2663
4.76	10.279
4.734	10.3025
4.709	10.3071
4.683	10.3618
4.658	10.4582
4.633	10.5776
4.608	10.7485
4.584	10.8745
4.56	10.9697
4.536	11.0363
4.512	11.0754
4.488	11.1108
4.465	11.1394
4.442	11.1386
4.42	11.144
4.397	11.1587
4.375	11.133
4.353	11.0195
4.331	10.8301
4.309	10.6201
4.288	10.469
4.267	10.3088
4.246	10.2697
4.225	10.3452
4.205	10.7795
4.184	11.0852
4.164	11.0644
4.144	11.0686
4.124	11.0551
4.105	11.052
4.085	11.0661
4.066	11.0639
4.047	11.0527
4.028	11.0613
4.009	11.0613
3.991	11.0583
3.973	11.0715
3.954	11.0683
3.936	11.0659
3.918	11.0588
3.901	11.0454
3.883	11.0144
3.866	10.9748
3.849	10.9326
3.832	10.9109
3.815	10.8806
3.798	10.8645
3.781	10.8352
3.765	10.8073
3.748	10.7793
3.732	10.7556
3.716	10.7151
3.7	10.6904
3.685	10.6579
3.669	10.6235
3.653	10.5998
3.638	10.561
3.623	10.5227
3.608	10.4902
3.593	10.4497
3.578	10.3962
3.563	10.3662
3.548	10.3188
3.534	10.2817
3.519	10.2207
3.505	10.0796
3.491	10.0473
3.477	10.0327
3.463	10.0041
3.449	9.928
3.435	9.8696
3.422	9.759
3.408	9.6628
3.395	9.666
3.382	9.624
3.369	9.581
3.355	9.5793
3.342	9.5302
3.33	9.4753
3.317	9.4258
3.304	9.3789
3.292	9.3274
3.279	9.2734
3.267	9.2275
3.254	9.1723
3.242	9.1162
3.23	9.083
3.218	9.0263
3.206	8.9892
3.194	8.9407
3.182	8.8833
3.171	8.8432
3.159	8.7746
3.148	8.7615
3.136	8.7163
3.125	8.6833
3.114	8.634
3.102	8.5903
3.091	8.5525
3.08	8.5239
3.069	8.5029
3.058	8.4565
3.048	8.4065
3.037	8.3794
3.026	8.3462
3.016	8.3154
3.005	8.2959
2.995	8.2549
2.985	8.1855
2.974	8.1665
2.964	8.124
2.954	8.0752
2.944	8.0151
2.934	7.9736
2.924	7.9616
2.914	7.9033
2.904	7.9038
2.895	7.8359
2.885	7.8069
2.875	7.7507
2.866	7.7417
2.856	7.6985
2.847	7.6677
2.838	7.6516
2.828	7.5928
2.819	7.6438
2.81	7.5942
2.801	7.6679
2.792	7.5935
2.783	7.6064
2.774	7.6262
2.765	7.6992
2.756	7.7268
2.747	7.7917
2.739	8.2158
2.73	8.0349
2.721	8.2392
2.713	8.2944
2.704	8.3528
2.696	8.4494
2.687	8.468
2.679	8.4944
2.671	8.4472
2.663	8.5285
2.654	8.5022
2.646	8.4595
2.638	8.4387
2.63	8.6328
2.622	8.4031
2.614	8.4631
2.606	8.4687
2.599	8.3059
2.591	8.334
2.583	8.4033
2.575	8.3557
2.568	8.2617
2.56	8.3157
2.553	8.1848
2.545	8.1438
2.538	8.0908
2.53	8.1174
2.523	8.0422
2.515	7.9995
2.508	7.9778
2.501	7.9612
2.494	7.9302
2.486	7.9082
2.479	7.8701
2.472	7.8511
2.465	7.845
2.458	7.8059
2.451	7.7617
2.444	7.7268
2.437	7.7065
2.43	7.6936
2.424	7.6282
2.417	7.6094
2.41	7.5805
2.403	7.5659
2.397	7.5283
2.39	7.5185
2.384	7.4504
2.377	7.4319
2.37	7.3838
2.364	7.3828
2.358	7.3391
2.351	7.2851
2.345	7.2295
2.338	7.2121
2.332	7.1496
2.326	7.1406
2.32	7.1155
2.313	7.0576
2.307	7.0571
2.301	7.0049
2.295	6.9824
2.289	6.9595
2.283	6.9292
2.277	6.873
2.271	6.8584
2.265	6.8076
2.259	6.8218
2.253	6.7759
2.247	6.7041
2.241	6.6528
2.236	6.5962
2.23	6.6172
2.224	6.5688
2.218	6.5088
2.213	6.4971
2.207	6.4033
2.201	6.3862
2.196	6.3647
2.19	6.3286
2.185	6.3242
2.179	6.3056
2.174	6.1753
2.168	6.1885
2.163	6.168
2.157	6.0688
2.152	6.1269
2.147	6.0342
2.141	6.0351
2.136	5.9731
2.131	5.9653
2.126	5.8945
2.12	5.8911
2.115	5.7778
2.11	5.8188
2.105	5.6543
2.1	5.7637
2.095	5.6484
2.09	5.6528
2.085	5.6255
2.079	5.5766
