Name: ALHA 77299
Type: Stony Meteorites
Class: Ordinary Chondrite
Subclass: H3
Particle Size: 0-75 micrometers
Sample No.: ALHA 77299
Owner: JHU
Origin: Meteorite found in Antarctica in 1977.  Smithsonian sample No. USNM
Description: None.
Measurement: Bidirectional reflectance
X Units: Wavelength (micrometers)
Y Units: Reflectance (percent)
wavelength	value
25.044	1.428
24.339	1.6753
23.672	1.656
23.041	1.4751
22.442	1.2539
21.874	1.2156
21.334	1.1919
20.82	1.2698
20.33	1.4482
19.863	1.5996
19.416	1.7026
18.99	1.6492
18.581	1.5212
18.19	1.4495
17.815	1.29
17.455	1.2124
17.109	1.1431
16.777	1.106
16.458	1.1218
16.15	1.0832
15.854	1.0129
15.568	0.9136
15.292	0.8682
15.027	0.9319
14.77	0.9915
14.521	1.0891
14.281	1.1873
14.049	1.24
13.824	1.2095
13.607	1.2397
13.396	1.4114
13.191	1.5557
12.993	1.6331
12.8	1.6562
12.614	1.668
12.432	1.6548
12.256	1.6072
12.084	1.468
11.918	1.2993
11.755	1.3015
11.598	1.4272
11.444	1.6309
11.294	1.7349
11.149	1.7014
11.007	1.6909
10.868	1.7722
10.733	1.8406
10.602	1.8186
10.473	1.6462
10.348	1.5166
10.225	1.4956
10.106	1.4375
9.9887	1.4036
9.8746	1.3867
9.763	1.3494
9.6539	1.394
9.5472	1.4871
9.4429	1.5164
9.3408	1.4578
9.2409	1.343
9.1431	1.2935
9.0474	1.2974
8.9536	1.2876
8.8618	1.2642
8.7718	1.1855
8.6837	1.1724
8.5973	1.1692
8.5126	1.1995
8.4295	1.2949
8.3481	1.4338
8.2682	1.6138
8.1898	1.782
8.1129	1.9285
8.0374	2.0642
7.9634	2.1841
7.8906	2.2707
7.8192	2.3271
7.7491	2.3496
7.6802	2.3281
7.6126	2.2644
7.5461	2.1887
7.4807	2.113
7.4165	2.0676
7.3534	2.0703
7.2914	2.1042
7.2303	2.1504
7.1703	2.206
7.1113	2.269
7.0533	2.3496
6.9962	2.4446
6.94	2.5215
6.8847	2.5464
6.8302	2.5435
6.7767	2.5281
6.7239	2.5137
6.672	2.5002
6.6209	2.5071
6.5705	2.5342
6.5209	2.5727
6.4721	2.6072
6.424	2.6372
6.3766	2.6638
6.3299	2.6802
6.2838	2.7302
6.2385	2.8061
6.1937	2.8855
6.1496	2.9766
6.1062	3.0068
6.0633	2.9609
6.0211	2.9282
5.9794	2.9976
5.9383	3.1108
5.8978	3.1863
5.8578	3.2539
5.8184	3.3025
5.7794	3.3315
5.741	3.3118
5.7031	3.2529
5.6657	3.1826
5.6288	3.1851
5.5924	3.2734
5.5564	3.3591
5.5209	3.3874
5.4859	3.3921
5.4513	3.4355
5.4171	3.5037
5.3833	3.5654
5.35	3.5974
5.3171	3.6128
5.2846	3.6089
5.2524	3.6023
5.2207	3.6003
5.1893	3.5984
5.1584	3.604
5.1277	3.6313
5.0975	3.6677
5.0676	3.7026
5.038	3.7292
5.0088	3.751
4.98	3.758
4.9514	3.7788
4.9232	3.8208
4.8953	3.8801
4.8678	3.9202
4.8405	3.9509
4.8135	3.9844
4.7868	4.0151
4.7605	4.0461
4.7344	4.0742
4.7086	4.0957
4.6831	4.1062
4.6578	4.1223
4.6328	4.1455
4.6081	4.1733
4.5837	4.1933
4.5595	4.2148
4.5356	4.2273
4.5119	4.2312
4.4884	4.2319
4.4652	4.24
4.4423	4.2449
4.4196	4.2483
4.3971	4.2522
4.3748	4.258
4.3528	4.2607
4.331	4.2607
4.3094	4.2583
4.288	4.2593
4.2668	4.2663
4.2458	4.2737
4.2251	4.2717
4.2045	4.2744
4.1841	4.2671
4.164	4.2561
4.144	4.2571
4.1242	4.2519
4.1046	4.2429
4.0852	4.2392
4.066	4.2319
4.047	4.2229
4.0281	4.2075
4.0094	4.1865
3.9909	4.1616
3.9725	4.1318
3.9544	4.1084
3.9363	4.0945
3.9185	4.0876
3.9008	4.0847
3.8833	4.0774
3.8659	4.0637
3.8487	4.0613
3.8316	4.0464
3.8147	4.0161
3.7979	4.0022
3.7813	4
3.7648	3.9963
3.7485	3.9866
3.7323	3.9704
3.7162	3.9548
3.7003	3.928
3.6845	3.9082
3.6689	3.887
3.6534	3.8664
3.638	3.8445
3.6227	3.8135
3.6076	3.7883
3.5926	3.7622
3.5777	3.7302
3.563	3.7007
3.5484	3.6738
3.5338	3.633
3.5195	3.5947
3.5052	3.5434
3.491	3.5019
3.477	3.4758
3.463	3.446
3.4492	3.4138
3.4355	3.3811
3.4219	3.3428
3.4084	3.3225
3.395	3.312
3.3817	3.2961
3.3685	3.2751
3.3554	3.2449
3.3425	3.22
3.3296	3.1882
3.3168	3.1589
3.3041	3.1313
3.2915	3.1169
3.279	3.0923
3.2666	3.0686
3.2543	3.0351
3.2421	3.0071
3.23	2.9763
3.218	2.9465
3.206	2.9202
3.1942	2.8906
3.1824	2.8567
3.1707	2.8291
3.1591	2.8066
3.1476	2.7798
3.1362	2.7576
3.1249	2.7307
3.1136	2.7136
3.1024	2.6975
3.0913	2.6733
3.0803	2.6609
3.0694	2.6509
3.0585	2.6374
3.0477	2.6218
3.037	2.6128
3.0264	2.6006
3.0158	2.5937
3.0053	2.5935
2.9949	2.5769
2.9845	2.5676
2.9743	2.561
2.9641	2.5544
2.9539	2.5486
2.9439	2.5488
2.9339	2.5452
2.9239	2.5491
2.9141	2.5539
2.9043	2.5564
2.8946	2.5613
2.8849	2.5832
2.8753	2.603
2.8658	2.6265
2.8563	2.6528
2.8469	2.6865
2.8375	2.7336
2.8282	2.7971
2.819	2.8459
2.8098	2.9167
2.8007	2.9824
2.7917	3.0601
2.7827	3.1345
2.7738	3.2151
2.7649	3.3003
2.7561	3.386
2.7473	3.4692
2.7386	3.5408
2.7299	3.6106
2.7213	3.6311
2.7128	3.677
2.7043	3.6948
2.6959	3.7041
2.6875	3.7183
2.6791	3.7053
2.6709	3.6943
2.6626	3.7021
2.6545	3.7078
2.6463	3.6997
2.6382	3.6921
2.6302	3.6721
2.6222	3.6643
2.6143	3.6558
2.6064	3.6572
2.5986	3.6406
2.5908	3.6392
2.583	3.6309
2.5753	3.6116
2.5677	3.615
2.5601	3.604
2.5525	3.5908
2.545	3.5933
2.5375	3.571
2.5301	3.5635
2.5227	3.5447
2.5154	3.5237
2.5081	3.5139
2.5008	3.5088
2.4936	3.5071
2.4864	3.498
2.4793	3.4924
2.4722	3.4785
2.4651	3.4548
2.4581	3.4543
2.4511	3.449
2.4442	3.4338
2.4373	3.4319
2.4305	3.4331
2.4236	3.4238
2.4169	3.3955
2.4101	3.3945
2.4034	3.3867
2.3967	3.3796
2.3901	3.3723
2.3835	3.3704
2.377	3.3567
2.3704	3.3557
2.364	3.3457
2.3575	3.3371
2.3511	3.3218
2.3447	3.3188
2.3384	3.3122
2.3321	3.3057
2.3258	3.2969
2.3195	3.2964
2.3133	3.2832
2.3071	3.2759
2.301	3.2568
2.2949	3.2559
2.2888	3.2541
2.2828	3.2744
2.2767	3.2339
2.2708	3.2485
2.2648	3.238
2.2589	3.2273
2.253	3.2266
2.2471	3.2395
2.2413	3.2314
2.2355	3.2329
2.2297	3.2358
2.224	3.2209
2.2183	3.2075
2.2126	3.196
2.207	3.2092
2.2013	3.1851
2.1957	3.1914
2.1902	3.2104
2.1846	3.2012
2.1791	3.1782
2.1736	3.1985
2.1682	3.2173
2.1628	3.1872
2.1574	3.1787
2.152	3.2056
2.1466	3.1941
2.1413	3.1885
2.136	3.1829
2.1308	3.1658
2.1255	3.1623
2.1203	3.1792
2.1151	3.1799
2.11	3.1553
2.1048	3.168
2.0997	3.175
2.0946	3.1589
2.0895	3.1655
2.0845	3.1465
2.0795	3.1538
