Name: Limestone
Type: Rocks
Class: Sedimentary
Subclass: Limestone
Particle Size: 0 - 75 Micrometers
Sample No.: limestone.3
Owner: JHU
Wavelength Range: All
Origin: Sample No. 381,  The Hunt and Salisbury Collection at the U.S.
Description: This is a very clean fine-grained to microcrystalline
Measurement: Directional (10 Degree) Hemispherical Reflectance
X Units: Wavelength (micrometers)
Y Units: Reflectance (percent)
wavelength	value
14.983	16.346
14.645	18.839
14.321	19.79
14.011	13.483
13.715	1.6923
13.43	14.804
13.158	29.599
12.896	35.202
12.644	37.377
12.402	39.035
12.169	39.514
11.945	37.976
11.729	13.013
11.52	11.289
11.319	6.9103
11.125	29.902
10.937	31.704
10.755	33.036
10.58	33.494
10.41	34.206
10.245	31.71
10.086	29.084
9.931	26.686
9.781	25.003
9.636	23.777
9.495	26.659
9.358	25.792
9.225	26.206
9.095	20.571
8.969	26.019
8.847	25.942
8.727	24.299
8.612	24.852
8.499	20.985
8.389	17.742
8.281	21.22
8.177	17.453
8.075	16.027
7.976	16.66
7.879	16.899
7.784	15.007
7.692	12.626
7.601	12.777
7.513	10.555
7.427	9.1458
7.343	7.621
7.261	5.9024
7.18	5.0842
7.102	5.1834
7.025	7.8102
6.949	7.8651
6.875	7.9771
6.803	8.4539
6.733	8.8929
6.663	9.7386
6.596	11.054
6.529	12.596
6.464	14.321
6.4	15.798
6.338	15.617
6.276	7.5899
6.216	4.9125
6.157	4.6814
6.099	3.7786
6.042	4.2892
5.986	5.1934
5.931	6.4224
5.878	7.6873
5.825	8.9621
5.773	9.8023
5.722	10.824
5.672	11.564
5.623	10.6
5.574	8.3039
5.527	3.9593
5.48	3.6801
5.434	15.53
5.389	26.04
5.345	31.263
5.301	33.968
5.258	37.746
5.215	41.345
5.174	43.789
5.133	45.61
5.093	46.241
5.053	44.131
5.014	48.558
4.975	49.207
4.937	49.565
4.9	49.734
4.863	49.835
4.827	49.814
4.791	49.668
4.756	49.433
4.721	48.641
4.687	45.979
4.654	39.017
4.62	37.214
4.588	39.848
4.556	43.342
4.524	45.171
4.492	47.885
4.461	46.701
4.431	45.267
4.401	47.422
4.371	49.1
4.342	47.966
4.313	44.607
4.284	40.848
4.256	40.81
4.229	43.567
4.201	47.347
4.174	47.499
4.147	46.211
4.121	45.996
4.095	44.859
4.069	42.227
4.044	37.798
4.019	29.921
3.994	18.185
3.97	7.3569
3.945	6.7279
3.921	7.9056
3.898	12.524
3.875	14.275
3.852	20.568
3.829	22.606
3.806	15.24
3.784	21.102
3.762	30.231
3.74	40.98
3.719	44.504
3.698	46.058
3.677	47.219
3.656	47.645
3.636	47.711
3.615	47.59
3.595	47.247
3.575	46.61
3.556	43.752
3.536	42.501
3.517	37.242
3.498	24.554
3.479	16.052
3.461	12.786
3.442	12.902
3.424	18.623
3.406	20.408
3.388	21.89
3.371	23.976
3.353	20.128
3.336	18.267
3.319	17.215
3.302	17.43
3.285	34.343
3.269	38.216
3.252	39.669
3.236	40.299
3.22	40.426
3.204	40.367
3.188	39.993
3.173	39.516
3.157	38.774
3.142	37.511
3.127	36.684
3.112	35.98
3.097	35.31
3.082	34.521
3.067	34.338
3.053	34.083
3.039	33.631
3.025	33.366
3.011	32.901
2.997	32.364
2.983	31.765
2.969	31.156
2.956	30.788
2.942	30.55
2.929	30.404
2.916	30.504
2.903	30.7
2.89	31.127
2.877	31.717
2.864	32.41
2.852	33.033
2.839	34.053
2.827	34.913
2.814	35.733
2.802	36.557
2.79	37.125
2.778	37.504
2.766	37.679
2.755	39.537
2.743	41.382
2.731	43.368
2.72	44.853
2.708	45.33
2.697	46.934
2.686	47.813
2.675	48.4
2.664	48.69
2.653	48.922
2.642	49.006
2.632	48.879
2.621	48.878
2.61	48.936
2.6	48.915
2.59	48.798
2.579	48.71
2.569	48.537
2.559	48.333
2.549	47.975
2.539	46.842
2.529	45.503
2.519	44.666
2.509	44.78
2.5	45.177
2.49	45.63
2.481	46.149
2.471	46.268
2.462	46.375
2.452	46.56
2.443	47.023
2.434	47.384
2.425	47.61
2.416	47.804
2.407	47.856
2.398	47.843
2.389	47.858
2.38	47.86
2.372	47.923
2.363	47.932
2.354	47.712
2.346	47.329
2.337	46.751
2.329	46.142
2.321	46.051
2.312	46.146
2.304	46.289
2.296	46.403
2.288	46.505
2.28	46.597
2.272	46.577
2.264	46.655
2.256	46.743
2.248	46.933
2.24	47.027
2.233	47.104
2.225	47.07
2.217	47.069
2.21	47.121
2.202	47.018
2.195	47.111
2.187	46.954
2.18	46.998
2.173	46.94
2.166	46.992
2.158	46.968
2.151	46.894
2.144	46.781
2.137	46.689
2.13	46.736
2.123	46.554
2.116	46.675
2.109	46.738
2.102	46.618
2.095	46.619
2.089	46.535
2.082	46.447
2.06	46.5
2.028	46.158
1.996	45.068
1.964	44.411
1.932	43.502
1.9	45.131
1.868	42.949
1.836	43.316
1.804	43.246
1.772	42.55
1.74	42.739
1.708	42.121
1.676	41.958
1.644	41.506
1.612	41.227
1.58	41.145
1.548	41.212
1.516	40.455
1.484	40.043
1.452	39.761
1.42	39.333
1.388	39.425
1.356	38.542
1.324	38.264
1.292	37.721
1.26	38.078
1.228	37.631
1.196	37.109
1.164	36.172
1.132	36.589
1.1	35.845
1.068	35.797
1.036	35.382
1.004	34.896
0.972	34.397
0.94	34.328
0.908	33.934
0.876	33.768
0.844	33.701
0.812	33.847
0.795	33.444
0.787	33.221
0.779	33.381
0.771	33.061
0.763	33.057
0.755	32.671
0.747	32.827
0.739	32.858
0.731	32.829
0.723	32.566
0.715	32.246
0.707	32.181
0.699	31.717
0.691	32.653
0.683	32.355
0.675	32.054
0.667	32.29
0.659	31.92
0.651	31.852
0.643	31.719
0.635	31.518
0.627	31.213
0.619	31.38
0.611	31.112
0.603	30.699
0.595	31.165
0.587	30.857
0.579	30.717
0.571	30.603
0.563	30.096
0.555	29.791
0.547	29.716
0.539	29.42
0.531	29.344
0.523	29.186
0.515	28.76
0.507	28.764
0.499	28.457
0.491	28.045
0.483	27.948
0.475	27.712
0.467	27.182
0.459	26.988
0.451	26.406
0.443	26.201
0.435	25.962
0.427	25.617
0.419	25.133
0.411	24.835
0.403	24.331
