Name: Datolite CaBSiO4(OH)
Type: Mineral
Class: Silicates
Subclass: Nesosilicates (Ring Silicates)
Particle Size: Coarse  (74-250 Micrometers)
Sample No.: datolite.1
Owner: JHU
Wavelength Range: IR
Origin: Hunt and Salisbury Collection #442B;  Sample from
Description: White particulate samples appear to be pure datolite,
Measurement: Bidirectional reflectance
X Units: Wavelength (micrometers)
Y Units: Reflectance (percent)
wavelength	value
25.0442	2.8437
24.3388	3.0063
23.6719	3.7546
23.0407	2.6123
22.4422	3.2251
21.8741	3.4043
21.334	4.3613
20.8199	4.4043
20.33	6.1909
19.8627	7.1169
19.4163	8.1814
18.9896	8.5068
18.5812	6.2781
18.19	3.5969
17.815	1.083
17.4551	2.5813
17.1094	1.8933
16.7772	1.2559
16.4576	1.5588
16.15	1.6833
15.8537	1.978
15.568	2.1279
15.2925	2.2278
15.0265	2.333
14.7697	2.4194
14.5214	2.697
14.2814	1.9343
14.0492	2.2197
13.8244	2.4163
13.6067	2.605
13.3957	2.7566
13.1912	2.8879
12.9929	3.2388
12.8004	4.2031
12.6135	3.0845
12.432	2.3254
12.2557	2.7615
12.0843	3.1482
11.9176	3.6548
11.7555	4.7143
11.5977	3.6023
11.444	4.9719
11.2944	5.5869
11.1487	3.9192
11.0067	4.7707
10.8682	6.1806
10.7332	6.134
10.6015	7.1838
10.473	6.1326
10.3476	4.0183
10.2251	5.9079
10.1056	7.3967
9.98873	7.5854
9.87458	8.0779
9.763	5.9248
9.65392	5.1391
9.54724	5.5039
9.44291	5.5217
9.34082	4.9328
9.24091	5.1267
9.14312	5.6001
9.04739	6.1628
8.95363	6.9568
8.8618	7.8408
8.77183	8.1755
8.68368	6.7485
8.59727	6.6152
8.51257	6.6545
8.42951	6.563
8.34807	5.6814
8.26819	4.03
8.18981	2.6125
8.11292	1.6101
8.03745	0.9668
7.96337	0.5159
7.89064	0.312
7.81924	0.3142
7.74911	0.3616
7.68023	0.4414
7.61256	0.5183
7.54608	0.5645
7.48074	0.584
7.41653	0.6082
7.35341	0.6504
7.29136	0.7144
7.23034	0.7825
7.17033	0.8957
7.11132	0.9922
7.05327	1.0325
6.99616	1.0581
6.93996	1.1177
6.88467	1.1514
6.83024	1.1999
6.77667	1.2356
6.72393	1.2554
6.67201	1.2302
6.62089	1.2439
6.57054	1.2732
6.52095	1.2268
6.4721	1.1746
6.42398	1.1931
6.37657	1.2419
6.32986	1.2551
6.28382	1.2654
6.23845	1.282
6.19373	1.3032
6.14965	1.3135
6.10619	1.3166
6.06334	1.3276
6.02109	1.3718
5.97942	1.4355
5.93832	1.4878
5.89778	1.551
5.8578	1.5432
5.81835	1.5769
5.77943	1.6992
5.74103	1.8711
5.70314	1.9133
5.66574	1.9399
5.62883	1.876
5.5924	1.7427
5.55644	1.6592
5.52093	1.6108
5.48588	1.5413
5.45127	1.4936
5.41709	1.4661
5.38334	1.4221
5.35	1.4209
5.31708	1.481
5.28456	1.5225
5.25243	1.5989
5.2207	1.6785
5.18934	1.7476
5.15836	1.8057
5.12775	1.8596
5.09749	1.9006
5.0676	1.9592
5.03805	2.0076
5.00884	2.064
4.97998	2.1411
4.95144	2.2339
4.92322	2.373
4.89533	2.4873
4.86775	2.5867
4.84048	2.7019
4.81351	2.8445
4.78684	2.9905
4.76047	3.0959
4.73439	3.1516
4.70859	3.227
4.68306	3.3418
4.65782	3.51
4.63284	3.7058
4.60814	4.0085
4.58369	4.3542
4.5595	4.636
4.53557	4.8371
4.51188	4.9639
4.48845	5.1225
4.46525	5.2197
4.44229	5.2197
4.41957	5.1658
4.39708	5.0547
4.37481	4.9607
4.35277	4.8308
4.33096	4.6958
4.30935	4.4663
4.28797	4.1504
4.26679	3.9412
4.24583	4.1096
4.22506	4.5686
4.2045	5.1636
4.18414	5.6797
4.16398	6.0854
4.14401	6.3445
4.12423	6.529
4.10464	6.6763
4.08523	6.7793
4.066	6.8083
4.04696	6.7676
4.02809	6.6894
4.0094	6.6316
3.99088	6.5688
3.97253	6.5996
3.95435	6.6972
3.93634	6.8159
3.91848	6.8598
3.90079	6.8735
3.88326	6.8735
3.86589	6.6958
3.84867	6.9961
3.8316	7.0617
3.81468	7.1216
3.79791	7.2275
3.78129	7.2424
3.76482	7.1213
3.74848	6.9087
3.73229	6.7121
3.71624	6.8222
3.70032	7.0054
3.68454	7.1614
3.6689	7.199
3.65338	7.2285
3.638	7.3481
3.62275	7.3818
3.60762	7.29
3.59262	7.0701
3.57775	6.467
3.56299	5.5835
3.54836	5.5569
3.53385	5.2058
3.51945	5.9409
3.50517	6.5669
3.49101	6.6765
3.47696	6.5278
3.46303	6.2746
3.4492	6.0434
3.43549	6.164
3.42188	6.1662
3.40838	6.1655
3.39499	6.1308
3.38171	6.0608
3.36852	6.345
3.35544	6.3074
3.34246	6.2969
3.32958	6.0993
3.3168	5.905
3.30411	5.8581
3.29153	5.729
3.27903	5.5251
3.26664	5.3662
3.25433	5.2334
3.24212	5.041
3.23	5.1199
3.21797	5.1011
3.20603	4.8799
3.19418	4.8354
3.18241	4.8147
3.17074	4.873
3.15914	4.7888
3.14763	4.7632
3.13621	4.9121
3.12487	4.7724
3.11361	4.7612
3.10243	4.6645
3.09133	4.4426
3.0803	4.3044
3.06936	4.1186
3.0585	3.8826
3.04771	3.522
3.037	3.29
3.02636	3.2432
3.0158	3.3828
3.00531	3.4766
2.99489	3.3027
2.98454	3.1279
2.97427	2.9687
2.96407	2.8926
2.95393	2.8696
2.94387	2.7698
2.93387	2.8799
2.92394	2.7917
2.91408	2.4746
2.90429	2.3547
2.89456	2.1123
2.88489	1.8176
2.87529	1.6123
2.86576	1.864
2.85628	0.8005
2.84687	1.1555
2.83752	1.6946
2.82823	2.3174
2.81901	2.8774
2.80984	3.2883
2.80073	3.6767
2.79168	3.8279
2.78269	3.654
2.77376	3.5537
2.76488	3.3208
2.75606	3.4744
2.7473	3.5403
2.73859	3.9805
2.72994	4.333
2.72134	4.6836
2.7128	4.7695
2.70431	4.7251
2.69587	4.3826
2.68748	4.6125
2.67915	5.0605
2.67087	5.3147
2.66264	5.2375
2.65446	5.1304
2.64633	5.0698
2.63825	4.3247
2.63021	4.1558
2.62223	4.6155
2.6143	4.7165
2.60641	4.5727
2.59857	4.7756
2.59078	4.9719
2.58304	5.8708
2.57534	6.2038
2.56768	6.1648
2.56008	5.4988
2.55251	5.552
2.54499	6.0268
2.53752	6.2966
2.53009	6.1655
2.5227	5.4304
2.51536	5.4275
2.50806	5.7453
2.5008	5.7544
2.49358	5.0649
2.4864	4.9348
2.47927	4.4492
2.47218	3.8035
2.46512	4.3122
2.45811	4.7366
2.45114	4.5102
2.4442	4.0859
2.43731	4.0649
2.43045	5.302
2.42363	5.4636
2.41685	3.4172
2.41011	2.8166
2.40341	3.7366
2.39674	3.6926
2.39011	3.4065
2.38352	4.1728
2.37696	6.5698
2.37044	8.0874
2.36395	8.6377
2.35751	8.5991
2.35109	7.6753
2.34471	6.6189
2.33836	7.3464
2.33205	7.6577
2.32578	7.3867
2.31953	7.5481
2.31332	7.3782
2.30714	8.0173
2.301	7.6762
2.29489	7.4319
2.28881	6.4839
2.28276	5.5337
2.27675	5.7915
2.27076	5.9468
2.26481	5.8645
2.25889	5.779
2.253	5.9797
2.24714	6.3611
2.24131	6.4646
2.23551	6.1658
2.22974	5.9228
2.224	5.8266
2.21829	6.1689
2.21261	6.7287
2.20696	7.168
2.20134	7.0845
2.19574	6.7121
2.19018	6.6562
2.18464	6.425
2.17913	5.9221
2.17365	5.7578
2.16819	5.4707
2.16277	4.8533
2.15737	4.7612
2.15199	5.1313
2.14665	5.6335
2.14133	6.3113
2.13603	6.1929
2.13077	5.8406
2.12552	5.737
2.12031	5.9402
2.11512	6.6758
2.10995	7.8833
2.10481	8.9624
2.0997	9.6086
2.09461	10.0068
2.08954	10.177
2.0845	9.979
2.07948	9.7778
