Name: Norite
Type: Rocks
Class: Igneous
Subclass: Mafic
Particle Size: Solid
Sample No.: Norite.H2
Owner: JHU
Origin: from Nye, Montana, via Ward's Scientific (Cat. No. W-40)
Description: A dark greenish-gray, medium-grained granular rock
Measurement: Directional (10 degree) hemispherical reflectance
X Units: Wavelength (micrometers)
Y Units: Reflectance (percent)
wavelength	value
14.0112	3.934
13.7147	3.6659
13.4304	3.5372
13.1577	3.8468
12.8959	3.9994
12.6443	4.1226
12.4023	4.7587
12.1694	5.5268
11.945	6.2885
11.7289	7.335
11.5203	8.8511
11.3191	10.5613
11.1248	10.4236
10.937	10.8724
10.7555	12.8821
10.5799	13.8101
10.4099	14.2766
10.2454	14.561
10.0859	14.6561
9.9313	14.7358
9.7814	15.3869
9.636	15.2449
9.4948	14.7281
9.3577	13.1051
9.2245	12.4216
9.095	12.5971
8.9691	11.2428
8.8467	8.6395
8.7275	6.5147
8.6116	5.2043
8.4986	4.6478
8.3886	4.1072
8.2814	2.8127
8.1769	1.3639
8.075	0.9335
7.9756	0.8576
7.8786	0.8892
7.784	0.9518
7.6916	1.0284
7.6014	1.122
7.5133	1.211
7.4272	1.3085
7.343	1.4041
7.2607	1.4899
7.1803	1.5813
7.1016	1.6528
7.0246	1.7325
6.9493	1.8007
6.8755	1.8694
6.8034	1.9291
6.7327	1.9828
6.6634	2.0529
6.5956	2.0796
6.5292	2.1366
6.464	2.1509
6.4002	2.1438
6.3376	2.1516
6.2762	2.1543
6.216	2.1797
6.157	2.2003
6.099	2.2237
6.0421	2.2558
5.9863	2.2296
5.9315	2.2837
5.8777	2.3917
5.8249	2.4804
5.773	2.5465
5.722	2.6109
5.6719	2.6519
5.6227	2.6993
5.5744	2.7595
5.5268	2.8094
5.4801	2.8572
5.4341	2.8906
5.3889	2.947
5.3445	2.9871
5.3008	3.0321
5.2578	3.056
5.2154	3.0764
5.1738	3.1153
5.1328	3.1694
5.0925	3.2171
5.0528	3.2712
5.0137	3.3424
4.9752	3.3914
4.9373	3.4432
4.9	3.4793
4.8632	3.5135
4.827	3.5751
4.7913	3.619
4.7561	3.6614
4.7215	3.6855
4.6873	3.7071
4.6536	3.781
4.6205	3.8574
4.5877	3.9307
4.5555	3.9966
4.5237	4.0395
4.4923	4.0781
4.4614	4.1393
4.4309	4.1538
4.4008	4.1939
4.3711	4.2356
4.3418	4.2998
4.3129	4.3512
4.2844	4.4259
4.2563	4.5033
4.2285	4.5581
4.2011	4.6268
4.174	4.6545
4.1473	4.7332
4.1209	4.7941
4.0949	4.8262
4.0692	4.8778
4.0438	4.9226
4.0187	4.9441
3.994	4.9935
3.9695	5.0023
3.9453	5.0418
3.9214	5.0613
3.8979	5.0569
3.8746	5.0459
3.8515	5.0728
3.8288	5.0725
3.8063	5.0564
3.7841	5.059
3.7621	5.0386
3.7404	5.0147
3.7189	4.9999
3.6977	4.9835
3.6767	4.9662
3.656	4.946
3.6355	4.9319
3.6152	4.8912
3.5951	4.8714
3.5753	4.8443
3.5557	4.807
3.5363	4.7463
3.5171	4.687
3.4981	4.6312
3.4793	4.5925
3.4607	4.5572
3.4423	4.5195
3.4241	4.4231
3.4061	4.4029
3.3883	4.3647
3.3707	4.3423
3.3533	4.3333
3.336	4.3034
3.3189	4.2652
3.302	4.2164
3.2853	4.1553
3.2687	4.1275
3.2523	4.0985
3.2361	4.0465
3.22	4.0067
3.204	3.9494
3.1883	3.914
3.1727	3.8906
3.1572	3.8418
3.1419	3.788
3.1268	3.7594
3.1117	3.728
3.0969	3.7291
3.0821	3.6947
3.0675	3.6675
3.0531	3.6733
3.0388	3.6253
3.0246	3.6703
3.0105	3.626
2.9966	3.6204
2.9828	3.592
2.9692	3.6044
2.9556	3.6122
2.9422	3.5901
2.9289	3.5997
2.9157	3.5782
2.9027	3.6208
2.8897	3.5641
2.8769	3.6241
2.8642	3.6054
2.8516	3.6213
2.8391	3.6366
2.8267	3.6272
2.8144	3.649
2.8022	3.6516
2.7902	3.6935
2.7782	3.713
2.7664	3.7453
2.7546	3.8369
2.7429	3.8922
2.7314	4.0385
2.7199	4.2694
2.7085	4.8267
2.6973	5.6018
2.6861	6.2158
2.675	6.8704
2.664	7.0953
2.6531	7.1904
2.6423	7.301
2.6315	7.3462
2.6209	7.3952
2.6103	7.3985
2.5999	7.4151
2.5895	7.3901
2.5792	7.3704
2.569	7.3784
2.5588	7.326
2.5487	7.4128
2.5388	7.3711
2.5289	7.3713
2.519	7.3385
2.5093	7.3404
2.4996	7.3563
2.49	7.3831
2.4805	7.3024
2.471	7.3148
2.4616	7.3226
2.4523	7.3312
2.4431	7.3854
2.4339	7.3545
2.4248	7.3717
2.4157	7.398
2.4068	7.448
2.3979	7.5033
2.389	7.496
2.3802	7.5431
2.3715	7.5886
2.3629	7.609
2.3543	7.5345
2.3458	7.5089
2.3373	7.5052
2.3289	7.3741
2.3206	7.4015
2.3123	7.4327
2.3041	7.4747
2.2959	7.4737
2.2878	7.5178
2.2798	7.5616
2.2718	7.5942
2.2638	7.5351
2.2559	7.5077
2.2481	7.4704
2.2403	7.4649
2.2326	7.4777
2.225	7.4817
2.2173	7.4917
2.2098	7.4283
2.2023	7.4311
2.1948	7.4039
2.1874	7.3282
2.18	7.3812
2.1727	7.3568
2.1655	7.3192
2.1583	7.2912
2.1511	7.2945
2.144	7.2797
2.1369	7.1829
2.1299	7.234
2.1229	7.2218
2.116	7.1878
2.1091	7.1564
2.1023	7.1712
2.0955	7.1772
2.0887	7.1294
2.082	7.2371
2.06	7.0746
2.028	6.861
1.996	6.8859
1.964	6.5305
1.932	6.5968
1.9	6.9194
1.868	7.3363
1.836	7.56
1.804	7.8
1.772	7.7646
1.74	7.906
1.708	8.112
1.676	8.3018
1.644	8.447
1.612	8.6856
1.58	8.8304
1.548	9.1607
1.516	9.3962
1.484	9.6482
1.452	9.6681
1.42	9.7746
1.388	9.8863
1.356	10.0014
1.324	9.9335
1.292	9.7838
1.26	9.6203
1.228	9.4403
1.196	9.2582
1.164	9.1898
1.132	9.1326
1.1	8.8119
1.068	8.6338
1.036	8.4277
1.004	7.9279
0.972	7.9121
0.94	7.8343
0.908	7.9027
0.876	8.1878
0.844	8.5257
0.812	9.059
0.795	8.8632
0.787	9.4007
0.779	9.6157
0.771	9.6978
0.763	9.5286
0.755	9.7578
0.747	10.0012
0.739	9.6364
0.731	9.9715
0.723	10.0207
0.715	10.3266
0.707	9.6522
0.699	9.7602
0.691	10.4343
0.683	10.1522
0.675	10.139
0.667	10.1567
0.659	10.1582
0.651	10.5097
0.643	10.0562
0.635	10.3414
0.627	10.2048
0.619	10.2978
0.611	10.1617
0.603	10.3446
0.595	10.5186
0.587	10.324
0.579	10.4227
0.571	10.0827
0.563	10.3845
0.555	10.2847
0.547	10.007
0.539	10.0714
0.531	10.198
0.523	10.2255
0.515	9.8527
0.507	9.757
0.499	9.8106
0.491	9.3371
0.483	9.2585
0.475	9.0573
0.467	8.9003
0.459	8.9364
0.451	8.9625
0.443	8.7406
0.435	8.4602
0.427	8.4285
0.419	7.9178
0.411	7.6383
0.403	7.3044
