Name: Staurolite (Fe+2,Mg,Zn)2Al9(Si,Al)4O22(OH)2
Type: Mineral
Class: Silicates
Subclass: Nesosilicates (Framework silicates);
Particle Size: Coarse  (75 - 250  Micrometers)
Sample No.: staurol.1
Owner: JHU
Wavelength Range: IR
Origin: Rubellita, Minas Gerais, Brazil via the Smithsonian (sample no.
Description: Sample was a large, dark brown, prismatic crystal with
Measurement: Bidirectional reflectance
X Units: Wavelength (micrometers)
Y Units: Reflectance (percent)
wavelength	value
25.0442	3.9673
24.3388	4.5181
23.6719	5.2566
23.0407	5.616
22.4422	4.3393
21.8741	4.4311
21.334	5.2095
20.8199	5.8696
20.33	6.1006
19.8627	5.7283
19.4163	5.2522
18.9896	5.3176
18.5812	5.4824
18.19	5.3252
17.815	5.1877
17.4551	5.5249
17.1094	6.3039
16.7772	6.8454
16.4576	6.9314
16.15	7.0703
15.8537	7.1479
15.568	7.6528
15.2925	7.9226
15.0265	7.9783
14.7697	7.8425
14.5214	8.1452
14.2814	8.2759
14.0492	7.2221
13.8244	5.2746
13.6067	3.4783
13.3957	2.2102
13.1912	1.9543
12.9929	2.0166
12.8004	1.7759
12.6135	1.4304
12.432	1.3015
12.2557	1.5498
12.0843	1.9702
11.9176	2.3899
11.7555	2.6685
11.5977	2.8689
11.444	3
11.2944	3.1238
11.1487	3.3245
11.0067	3.5027
10.8682	3.6799
10.7332	3.9338
10.6015	4.2109
10.473	4.4182
10.3476	4.4626
10.2251	4.4932
10.1056	4.9372
9.98873	5.6863
9.87458	6.4702
9.763	6.9485
9.65392	6.7444
9.54724	6.156
9.44291	5.4368
9.34082	4.9365
9.24091	3.9028
9.14312	2.5039
9.04739	1.2454
8.95363	0.4949
8.8618	0.2373
8.77183	0.2402
8.68368	0.3069
8.59727	0.3813
8.51257	0.4536
8.42951	0.5361
8.34807	0.603
8.26819	0.688
8.18981	0.739
8.11292	0.8022
8.03745	0.8533
7.96337	0.9067
7.89064	0.9582
7.81924	1.0073
7.74911	1.0493
7.68023	1.0903
7.61256	1.1379
7.54608	1.1716
7.48074	1.2129
7.41653	1.2603
7.35341	1.3101
7.29136	1.3606
7.23034	1.4028
7.17033	1.4602
7.11132	1.4976
7.05327	1.5439
6.99616	1.5842
6.93996	1.6282
6.88467	1.6687
6.83024	1.6912
6.77667	1.7129
6.72393	1.7417
6.67201	1.7751
6.62089	1.8206
6.57054	1.8635
6.52095	1.9297
6.4721	1.9954
6.42398	2.0769
6.37657	2.1484
6.32986	2.2312
6.28382	2.3186
6.23845	2.4145
6.19373	2.5088
6.14965	2.5906
6.10619	2.6533
6.06334	2.7148
6.02109	2.7439
5.97942	2.7405
5.93832	2.6794
5.89778	2.6238
5.8578	2.563
5.81835	2.4817
5.77943	2.4197
5.74103	2.321
5.70314	2.218
5.66574	2.1326
5.62883	2.061
5.5924	1.9775
5.55644	1.8933
5.52093	1.8206
5.48588	1.7778
5.45127	1.7498
5.41709	1.7349
5.38334	1.7373
5.35	1.7478
5.31708	1.7776
5.28456	1.8076
5.25243	1.8411
5.2207	1.8826
5.18934	1.9209
5.15836	1.9727
5.12775	2.0535
5.09749	2.158
5.0676	2.2815
5.03805	2.4294
5.00884	2.5969
4.97998	2.7974
4.95144	3.019
4.92322	3.2095
4.89533	3.4133
4.86775	3.6152
4.84048	3.8203
4.81351	3.9717
4.78684	4.1069
4.76047	4.1826
4.73439	4.2204
4.70859	4.2715
4.68306	4.3679
4.65782	4.4546
4.63284	4.5185
4.60814	4.5781
4.58369	4.6025
4.5595	4.6084
4.53557	4.623
4.51188	4.6423
4.48845	4.6457
4.46525	4.6482
4.44229	4.656
4.41957	4.6562
4.39708	4.654
4.37481	4.6438
4.35277	4.6318
4.33096	4.6238
4.30935	4.6084
4.28797	4.5862
4.26679	4.5659
4.24583	4.5552
4.22506	4.541
4.2045	4.5232
4.18414	4.4897
4.16398	4.4563
4.14401	4.4277
4.12423	4.3928
4.10464	4.3664
4.08523	4.3281
4.066	4.2822
4.04696	4.2422
4.02809	4.1943
4.0094	4.1548
3.99088	4.0994
3.97253	4.0412
3.95435	3.9895
3.93634	3.9307
3.91848	3.8823
3.90079	3.8315
3.88326	3.7676
3.86589	3.7119
3.84867	3.6638
3.8316	3.5942
3.81468	3.5415
3.79791	3.4834
3.78129	3.4309
3.76482	3.365
3.74848	3.3052
3.73229	3.2351
3.71624	3.1743
3.70032	3.1023
3.68454	3.0415
3.6689	2.9863
3.65338	2.915
3.638	2.8589
3.62275	2.8083
3.60762	2.7436
3.59262	2.6865
3.57775	2.6206
3.56299	2.5647
3.54836	2.5046
3.53385	2.4521
3.51945	2.397
3.50517	2.342
3.49101	2.2944
3.47696	2.2427
3.46303	2.2029
3.4492	2.1506
3.43549	2.0981
3.42188	2.0596
3.40838	2.0063
3.39499	1.9651
3.38171	1.9248
3.36852	1.8999
3.35544	1.8516
3.34246	1.8127
3.32958	1.7737
3.3168	1.7344
3.30411	1.7104
3.29153	1.6902
3.27903	1.6528
3.26664	1.6204
3.25433	1.5986
3.24212	1.5715
3.23	1.5581
3.21797	1.5244
3.20603	1.5124
3.19418	1.4832
3.18241	1.4724
3.17074	1.4551
3.15914	1.4424
3.14763	1.4236
3.13621	1.4092
3.12487	1.4019
3.11361	1.366
3.10243	1.3596
3.09133	1.3447
3.0803	1.3247
3.06936	1.3081
3.0585	1.2888
3.04771	1.2654
3.037	1.2534
3.02636	1.2329
3.0158	1.2185
3.00531	1.1963
2.99489	1.1912
2.98454	1.1938
2.97427	1.1885
2.96407	1.1768
2.95393	1.1709
2.94387	1.1663
2.93387	1.1724
2.92394	1.1465
2.91408	1.1372
2.90429	1.1392
2.89456	1.1169
2.88489	1.1108
2.87529	1.0933
2.86576	1.092
2.85628	1.1052
2.84687	1.1184
2.83752	1.1047
2.82823	1.1174
2.81901	1.1306
2.80984	1.1379
2.80073	1.1211
2.79168	1.1372
2.78269	1.1396
2.77376	1.1411
2.76488	1.1589
2.75606	1.166
2.7473	1.1489
2.73859	1.1428
2.72994	1.1309
2.72134	1.1228
2.7128	1.1103
2.70431	1.1106
2.69587	1.1379
2.68748	1.1379
2.67915	1.1418
2.67087	1.1367
2.66264	1.1392
2.65446	1.1384
2.64633	1.1418
2.63825	1.1377
2.63021	1.1272
2.62223	1.1291
2.6143	1.1318
2.60641	1.1357
2.59857	1.1392
2.59078	1.1472
2.58304	1.1272
2.57534	1.1428
2.56768	1.1348
2.56008	1.1384
2.55251	1.1265
2.54499	1.1335
2.53752	1.125
2.53009	1.1323
2.5227	1.1267
2.51536	1.105
2.50806	1.1467
2.5008	1.1235
2.49358	1.1245
2.4864	1.1047
2.47927	1.1162
2.47218	1.1294
2.46512	1.1091
2.45811	1.1167
2.45114	1.134
2.4442	1.1165
2.43731	1.1038
2.43045	1.1042
2.42363	1.1086
2.41685	1.1323
2.41011	1.1025
2.40341	1.1233
2.39674	1.1191
2.39011	1.1277
2.38352	1.1038
2.37696	1.1189
2.37044	1.1301
2.36395	1.1106
2.35751	1.1191
2.35109	1.0955
2.34471	1.1365
2.33836	1.1208
2.33205	1.1204
2.32578	1.1006
2.31953	1.1096
2.31332	1.1523
2.30714	1.1265
2.301	1.1177
2.29489	1.1401
2.28881	1.1475
2.28276	1.1204
2.27675	1.157
2.27076	1.1394
2.26481	1.1455
2.25889	1.1265
2.253	1.1533
2.24714	1.1504
2.24131	1.1392
2.23551	1.127
2.22974	1.1431
2.224	1.1323
2.21829	1.124
2.21261	1.1482
2.20696	1.145
2.20134	1.1343
2.19574	1.123
2.19018	1.1714
2.18464	1.1189
2.17913	1.1526
2.17365	1.1416
2.16819	1.1418
2.16277	1.1465
2.15737	1.1409
2.15199	1.168
2.14665	1.1108
2.14133	1.1335
2.13603	1.1707
2.13077	1.1802
2.12552	1.1616
2.12031	1.1641
2.11512	1.1548
2.10995	1.1377
2.10481	1.1228
2.0997	1.1519
2.09461	1.1357
2.08954	1.165
2.0845	1.1653
2.07948	1.1179
