Name: Sanidine (K,Na)Al3O8
Type: Mineral
Class: Silicates
Subclass: Tectosilicates (Feldspar Group)
Particle Size: Fine  (Less than 2  Micrometers)
Sample No.: sanidine.3
Owner: JHU
Wavelength Range: IR
Origin: Higasinuiro-gun, Taiji, Wakayama, Japan via the Smithsonian
Description: The sample consisted of many small (0.5 cm) euhedral
Measurement: Transmission
X Units: Wavelength (micrometers)
Y Units: Transmittance (percent)
wavelength	value
25.0442	46.0546
24.3388	41.8222
23.6719	36.2343
23.0407	36.0116
22.4422	44.6679
21.8741	55.7001
21.334	63.0369
20.8199	71.5858
20.33	76.3768
19.8627	77.0589
19.4163	75.7132
18.9896	71.8777
18.5812	58.9686
18.19	55.3895
17.815	57.4847
17.4551	47.8856
17.1094	40.5951
16.7772	45.9335
16.4576	54.8788
16.15	61.3465
15.8537	62.2293
15.568	57.4601
15.2925	69.6434
15.0265	77.201
14.7697	79.6329
14.5214	79.0196
14.2814	73.4954
14.0492	67.9222
13.8244	66.0313
13.6067	66.931
13.3957	68.7559
13.1912	68.9041
12.9929	68.2137
12.8004	68.3497
12.6135	70.7567
12.432	78.5225
12.2557	85.4329
12.0843	85.6375
11.9176	83.3916
11.7555	80.449
11.5977	77.1556
11.444	73.3494
11.2944	69.6317
11.1487	65.3443
11.0067	60.5077
10.8682	54.8546
10.7332	48.442
10.6015	41.5231
10.473	34.9921
10.3476	28.8666
10.2251	23.2612
10.1056	18.7221
9.98873	15.2089
9.87458	13.0976
9.763	12.415
9.65392	12.5664
9.54724	13.5849
9.44291	15.9807
9.34082	20.5102
9.24091	23.6047
9.14312	23.4257
9.04739	22.2629
8.95363	21.3066
8.8618	21.1245
8.77183	21.9604
8.68368	24.3569
8.59727	28.6833
8.51257	34.4379
8.42951	40.2899
8.34807	45.5297
8.26819	50.6068
8.18981	54.9711
8.11292	58.2596
8.03745	60.8636
7.96337	63.2684
7.89064	65.1297
7.81924	66.7025
7.74911	68.1539
7.68023	69.3607
7.61256	70.5958
7.54608	71.6873
7.48074	72.6395
7.41653	73.4866
7.35341	74.2979
7.29136	75.0481
7.23034	75.7891
7.17033	76.7415
7.11132	77.5696
7.05327	78.0127
6.99616	78.6219
6.93996	79.3211
6.88467	79.6748
6.83024	80.0464
6.77667	80.4378
6.72393	80.8328
6.67201	81.2771
6.62089	81.679
6.57054	82.1175
6.52095	82.3572
6.4721	82.7137
6.42398	82.9417
6.37657	83.1429
6.32986	83.2925
6.28382	83.5281
6.23845	83.7493
6.19373	83.886
6.14965	83.7083
6.10619	83.7876
6.06334	84.1126
6.02109	85.0796
5.97942	85.9422
5.93832	85.701
5.89778	85.5977
5.8578	85.7132
5.81835	85.9368
5.77943	86.086
5.74103	86.199
5.70314	86.1912
5.66574	86.1673
5.62883	86.2737
5.5924	86.3777
5.55644	86.5569
5.52093	86.7486
5.48588	86.9719
5.45127	87.1934
5.41709	87.4353
5.38334	87.5662
5.35	87.7322
5.31708	87.9048
5.28456	88.064
5.25243	88.2454
5.2207	88.3782
5.18934	88.596
5.15836	88.7681
5.12775	88.9221
5.09749	89.0986
5.0676	89.2107
5.03805	89.3782
5.00884	89.5108
4.97998	89.5911
4.95144	89.6956
4.92322	89.7507
4.89533	89.8123
4.86775	89.8308
4.84048	89.9285
4.81351	89.9939
4.78684	90.0061
4.76047	90.0964
4.73439	90.1589
4.70859	90.1672
4.68306	90.2317
4.65782	90.262
4.63284	90.3982
4.60814	90.6096
4.58369	90.5178
4.5595	90.5603
4.53557	90.6321
4.51188	90.6409
4.48845	90.721
4.46525	90.7693
4.44229	90.7849
4.41957	90.8943
4.39708	90.9583
4.37481	90.9766
4.35277	90.9588
4.33096	91.0938
4.30935	91.1467
4.28797	91.1394
4.26679	91.1646
4.24583	91.1477
4.22506	91.1997
4.2045	91.2647
4.18414	91.2354
4.16398	91.283
4.14401	91.3052
4.12423	91.315
4.10464	91.346
4.08523	91.3713
4.066	91.3081
4.04696	91.3535
4.02809	91.3489
4.0094	91.3547
3.99088	91.3687
3.97253	91.3259
3.95435	91.3948
3.93634	91.4387
3.91848	91.4436
3.90079	91.4634
3.88326	91.4063
3.86589	91.3516
3.84867	91.4363
3.8316	91.4319
3.81468	91.4678
3.79791	91.3767
3.78129	91.3858
3.76482	91.4114
3.74848	91.415
3.73229	91.3645
3.71624	91.3665
3.70032	91.2966
3.68454	91.3152
3.6689	91.2893
3.65338	91.2273
3.638	91.2517
3.62275	91.1751
3.60762	91.1336
3.59262	91.1699
3.57775	91.1619
3.56299	91.1326
3.54836	91.0974
3.53385	91.052
3.51945	90.9524
3.50517	91.0283
3.49101	90.886
3.47696	90.708
3.46303	90.7334
3.4492	90.6506
3.43549	90.6631
3.42188	90.752
3.40838	90.5254
3.39499	90.5244
3.38171	90.5938
3.36852	90.5769
3.35544	90.3728
3.34246	90.4668
3.32958	90.4522
3.3168	90.4426
3.30411	90.5335
3.29153	90.513
3.27903	90.4024
3.26664	90.3574
3.25433	90.2888
3.24212	90.332
3.23	90.2976
3.21797	90.25
3.20603	90.2468
3.19418	90.1299
3.18241	90.0403
3.17074	89.9846
3.15914	89.9082
3.14763	89.7571
3.13621	89.6084
3.12487	89.5281
3.11361	89.4844
3.10243	89.2117
3.09133	88.9668
3.0803	88.7742
3.06936	88.6463
3.0585	88.4187
3.04771	88.2713
3.037	88.2175
3.02636	88.0564
3.0158	87.8474
3.00531	87.5735
2.99489	87.3875
2.98454	87.0999
2.97427	86.7068
2.96407	86.3093
2.95393	86.0008
2.94387	85.7488
2.93387	85.5652
2.92394	85.4612
2.91408	85.3836
2.90429	85.3953
2.89456	85.4187
2.88489	85.4998
2.87529	85.3987
2.86576	85.406
2.85628	85.5203
2.84687	85.6316
2.83752	85.6975
2.82823	85.9607
2.81901	86.2952
2.80984	86.5471
2.80073	86.6775
2.79168	86.8694
2.78269	87.1326
2.77376	87.2781
2.76488	87.4285
2.75606	87.8675
2.7473	87.9763
2.73859	88.0672
2.72994	88.0628
2.72134	88.0081
2.7128	88.1306
2.70431	88.1917
2.69587	88.281
2.68748	88.3924
2.67915	88.4324
2.67087	88.4514
2.66264	88.2966
2.65446	88.1775
2.64633	88.0784
2.63825	88.116
2.63021	88.1189
2.62223	88.0081
2.6143	87.9099
2.60641	87.9378
2.59857	87.8904
2.59078	87.9339
2.58304	87.8924
2.57534	87.7151
2.56768	87.6155
2.56008	87.6853
2.55251	87.4651
2.54499	87.3347
2.53752	87.4514
2.53009	87.2796
2.5227	87.1873
2.51536	87.2049
2.50806	87.159
2.5008	87.0838
2.49358	87.1687
2.4864	87.0427
2.47927	86.8806
2.47218	86.7547
2.46512	86.7107
2.45811	86.8416
2.45114	86.8045
2.4442	86.5066
2.43731	86.3953
2.43045	86.5037
2.42363	86.3963
2.41685	86.4383
2.41011	86.4744
2.40341	86.1795
2.39674	86.0486
2.39011	86.0672
2.38352	85.9226
2.37696	86.0838
2.37044	85.951
2.36395	85.8435
2.35751	85.7615
2.35109	85.7859
2.34471	85.6961
2.33836	85.6795
2.33205	85.4109
2.32578	85.489
2.31953	85.4969
2.31332	85.4373
2.30714	85.2078
2.301	85.3904
2.29489	85.3054
2.28881	85.1853
2.28276	85.1013
2.27675	85.0779
2.27076	85.0369
2.26481	85.0935
2.25889	85.1345
2.253	84.9383
2.24714	85.031
2.24131	84.8797
2.23551	84.8758
2.22974	84.9998
2.224	84.8601
2.21829	84.7742
2.21261	84.9138
2.20696	84.6775
2.20134	84.574
2.19574	84.5818
2.19018	84.6326
2.18464	84.5877
2.17913	84.5008
2.17365	84.6404
2.16819	84.7234
2.16277	84.5789
2.15737	84.3172
2.15199	84.3201
2.14665	84.4734
2.14133	84.1717
2.13603	84.4021
2.13077	84.6267
2.12552	84.4334
2.12031	84.6228
2.11512	84.5994
2.10995	84.4256
2.10481	84.3025
2.0997	84.7166
2.09461	84.8455
2.08954	84.8064
2.0845	84.3982
2.07948	84.4861
