Name: Olivine (Fo18) (Fe+2,Mg)2SiO4
Type: Mineral
Class: Silicates
Subclass: Nesosilicates (Isolated tetrahedra); (Olivine Group)
Particle Size: Fine  (0-60 Micrometers)
Sample No.: olivine.2
Owner: JHU
Wavelength Range: IR
Origin: Kiglapait Intrusion, Labrador via Trude King #KI3377
Description: Initially, the specimen was contaminated with pyroxene,
Measurement: Bidirectional reflectance
X Units: Wavelength (micrometers)
Y Units: Reflectance (percent)
wavelength	value
25.0442	2.438
24.3388	2.1934
23.6719	1.9539
23.0407	2.1255
22.4422	2.5937
21.8741	2.7217
21.334	3.2729
20.8199	3.6475
20.33	3.8694
19.8627	4.2295
19.4163	4.4619
18.9896	4.436
18.5812	3.541
18.19	2.4643
17.815	2.2947
17.4551	2.6089
17.1094	2.9409
16.7772	3.0693
16.4576	2.7595
16.15	2.0098
15.8537	1.8833
15.568	2.1621
15.2925	2.4204
15.0265	2.7114
14.7697	2.9331
14.5214	3.137
14.2814	3.2839
14.0492	3.3887
13.8244	3.3911
13.6067	3.3738
13.3957	3.3962
13.1912	3.3494
12.9929	3.239
12.8004	3.1506
12.6135	3.0027
12.432	2.8657
12.2557	2.75
12.0843	2.7759
11.9176	2.4294
11.7555	3.1006
11.5977	3.9734
11.444	4.7673
11.2944	5.1494
11.1487	5.4414
11.0067	5.6965
10.8682	5.3594
10.7332	3.5015
10.6015	4.0564
10.473	4.9927
10.3476	4.2007
10.2251	3.7859
10.1056	3.5737
9.98873	3.55
9.87458	3.6726
9.763	3.7278
9.65392	3.196
9.54724	2.3433
9.44291	1.7505
9.34082	1.6182
9.24091	1.8105
9.14312	2.0496
9.04739	2.3054
8.95363	2.5928
8.8618	2.8538
8.77183	3.0881
8.68368	3.3301
8.59727	3.5478
8.51257	3.7956
8.42951	4.0293
8.34807	4.2683
8.26819	4.5373
8.18981	4.7351
8.11292	4.8025
8.03745	4.7744
7.96337	4.751
7.89064	4.6975
7.81924	4.6587
7.74911	4.6772
7.68023	4.781
7.61256	4.9045
7.54608	5.019
7.48074	5.0923
7.41653	5.1367
7.35341	5.1865
7.29136	5.1863
7.23034	5.1662
7.17033	5.1648
7.11132	5.1916
7.05327	5.2012
6.99616	5.2209
6.93996	5.2519
6.88467	5.2739
6.83024	5.2663
6.77667	5.2629
6.72393	5.2341
6.67201	5.2436
6.62089	5.2485
6.57054	5.2556
6.52095	5.2422
6.4721	5.2283
6.42398	5.2002
6.37657	5.1435
6.32986	5.0754
6.28382	5.0127
6.23845	4.9433
6.19373	4.8352
6.14965	4.645
6.10619	4.3567
6.06334	4.2092
6.02109	4.3091
5.97942	4.3354
5.93832	4.3332
5.89778	4.3613
5.8578	4.3891
5.81835	4.3166
5.77943	4.1313
5.74103	3.9465
5.70314	3.9089
5.66574	4.0017
5.62883	4.0908
5.5924	4.1431
5.55644	4.1831
5.52093	4.2449
5.48588	4.3398
5.45127	4.4199
5.41709	4.4729
5.38334	4.5176
5.35	4.5896
5.31708	4.6921
5.28456	4.7695
5.25243	4.8391
5.2207	4.894
5.18934	4.9197
5.15836	4.967
5.12775	5.0434
5.09749	5.1411
5.0676	5.2439
5.03805	5.3447
5.00884	5.4414
4.97998	5.511
4.95144	5.5886
4.92322	5.6406
4.89533	5.7016
4.86775	5.7651
4.84048	5.8281
4.81351	5.885
4.78684	5.9421
4.76047	6.0058
4.73439	6.0632
4.70859	6.135
4.68306	6.2073
4.65782	6.272
4.63284	6.3501
4.60814	6.427
4.58369	6.5027
4.5595	6.5774
4.53557	6.6384
4.51188	6.7265
4.48845	6.8044
4.46525	6.8855
4.44229	6.9636
4.41957	7.0635
4.39708	7.1494
4.37481	7.238
4.35277	7.3169
4.33096	7.414
4.30935	7.4968
4.28797	7.5832
4.26679	7.6897
4.24583	7.7778
4.22506	7.8808
4.2045	7.9746
4.18414	8.0783
4.16398	8.1726
4.14401	8.2676
4.12423	8.373
4.10464	8.4587
4.08523	8.5622
4.066	8.6592
4.04696	8.748
4.02809	8.8562
4.0094	8.9555
3.99088	9.0632
3.97253	9.1755
3.95435	9.2688
3.93634	9.3779
3.91848	9.4878
3.90079	9.6028
3.88326	9.7055
3.86589	9.7993
3.84867	9.9001
3.8316	10.0017
3.81468	10.1145
3.79791	10.2182
3.78129	10.3249
3.76482	10.4262
3.74848	10.521
3.73229	10.6211
3.71624	10.7065
3.70032	10.801
3.68454	10.8957
3.6689	10.9726
3.65338	11.0595
3.638	11.1487
3.62275	11.2348
3.60762	11.3215
3.59262	11.4057
3.57775	11.4841
3.56299	11.5471
3.54836	11.5974
3.53385	11.6333
3.51945	11.592
3.50517	11.3764
3.49101	11.5844
3.47696	11.7202
3.46303	11.7863
3.4492	11.7636
3.43549	11.6682
3.42188	11.3781
3.40838	11.5439
3.39499	11.8862
3.38171	11.9548
3.36852	12.1071
3.35544	12.3227
3.34246	12.4153
3.32958	12.4663
3.3168	12.5185
3.30411	12.5295
3.29153	12.5771
3.27903	12.6169
3.26664	12.6028
3.25433	12.6096
3.24212	12.6389
3.23	12.6423
3.21797	12.6345
3.20603	12.6401
3.19418	12.6196
3.18241	12.6228
3.17074	12.6296
3.15914	12.6125
3.14763	12.5898
3.13621	12.5622
3.12487	12.56
3.11361	12.5488
3.10243	12.5388
3.09133	12.5298
3.0803	12.5229
3.06936	12.5234
3.0585	12.5073
3.04771	12.5122
3.037	12.4961
3.02636	12.4646
3.0158	12.4306
3.00531	12.395
2.99489	12.3608
2.98454	12.3459
2.97427	12.3149
2.96407	12.2898
2.95393	12.2705
2.94387	12.2534
2.93387	12.2502
2.92394	12.2641
2.91408	12.2671
2.90429	12.2719
2.89456	12.2607
2.88489	12.2195
2.87529	12.1574
2.86576	12.1154
2.85628	12.0647
2.84687	11.9868
2.83752	11.9089
2.82823	11.7434
2.81901	11.6394
2.80984	11.5351
2.80073	11.4975
2.79168	11.5149
2.78269	11.5981
2.77376	11.7683
2.76488	12.0002
2.75606	12.3435
2.7473	13.0163
2.73859	13.8816
2.72994	14.7583
2.72134	15.8151
2.7128	16.4602
2.70431	16.895
2.69587	17.1804
2.68748	17.351
2.67915	17.5241
2.67087	17.6486
2.66264	17.6535
2.65446	17.7058
2.64633	17.7226
2.63825	17.7443
2.63021	17.8254
2.62223	17.7954
2.6143	17.8471
2.60641	17.8469
2.59857	17.893
2.59078	17.9064
2.58304	17.9331
2.57534	17.9467
2.56768	17.9228
2.56008	17.9697
2.55251	17.9585
2.54499	17.9616
2.53752	17.9477
2.53009	17.979
2.5227	17.9633
2.51536	17.9333
2.50806	17.9721
2.5008	17.9709
2.49358	17.979
2.4864	17.9399
2.47927	17.9509
2.47218	17.9589
2.46512	17.9008
2.45811	17.9335
2.45114	17.9538
2.4442	17.9199
2.43731	17.896
2.43045	17.9052
2.42363	17.9179
2.41685	17.9213
2.41011	17.9204
2.40341	17.9135
2.39674	17.8837
2.39011	17.8335
2.38352	17.8271
2.37696	17.8457
2.37044	17.8129
2.36395	17.7919
2.35751	17.7597
2.35109	17.7763
2.34471	17.7377
2.33836	17.6965
2.33205	17.6806
2.32578	17.6806
2.31953	17.6557
2.31332	17.6416
2.30714	17.6313
2.301	17.6132
2.29489	17.5888
2.28881	17.5835
2.28276	17.5434
2.27675	17.5134
2.27076	17.4941
2.26481	17.498
2.25889	17.5305
2.253	17.487
2.24714	17.4597
2.24131	17.4953
2.23551	17.4558
2.22974	17.4875
2.224	17.4736
2.21829	17.4521
2.21261	17.4406
2.20696	17.4111
2.20134	17.3681
2.19574	17.3774
2.19018	17.3898
2.18464	17.3654
2.17913	17.2851
2.17365	17.3457
2.16819	17.3364
2.16277	17.2866
2.15737	17.2785
2.15199	17.2514
2.14665	17.1816
2.14133	17.2104
2.13603	17.1796
2.13077	17.1792
2.12552	17.1777
2.12031	17.1906
2.11512	17.1396
2.10995	17.163
2.10481	17.121
2.0997	17.0864
2.09461	17.1401
2.08954	17.1242
2.0845	17.1001
2.07948	17.0615
