Name: Olivine (Fo92) (Fe+2,Mg)2SiO4
Type: Mineral
Class: Silicates
Subclass: Nesosilicates (Isolated tetrahedra); (Olivine Group)
Particle Size: Fine  (0-30 Micrometers)
Sample No.: olivine.1
Owner: JHU
Wavelength Range: IR
Origin: Kiglapait Intrusion, Labrador via Trude King #KI3005
Description: Initially, the specimen was contaminated with pyroxene,
Measurement: Bidirectional reflectance
X Units: Wavelength (micrometers)
Y Units: Reflectance (percent)
wavelength	value
25.0442	0.7322
24.3388	0.8125
23.6719	1.0691
23.0407	1.0918
22.4422	1.3303
21.8741	1.2192
21.334	1.2078
20.8199	1.2998
20.33	1.3599
19.8627	1.3572
19.4163	1.4529
18.9896	1.4512
18.5812	1.2305
18.19	1.0603
17.815	1.0295
17.4551	1.1345
17.1094	1.3137
16.7772	1.4629
16.4576	1.5483
16.15	1.5583
15.8537	1.7974
15.568	2.1226
15.2925	2.3989
15.0265	2.5093
14.7697	2.6704
14.5214	2.7756
14.2814	2.8784
14.0492	2.9338
13.8244	2.8276
13.6067	2.7859
13.3957	2.6567
13.1912	2.5622
12.9929	2.4206
12.8004	2.2053
12.6135	1.9238
12.432	1.6602
12.2557	1.3286
12.0843	1.0408
11.9176	1.05
11.7555	1.147
11.5977	1.2856
11.444	1.3833
11.2944	1.425
11.1487	1.5081
11.0067	1.5635
10.8682	1.4817
10.7332	1.1741
10.6015	1.2583
10.473	1.4832
10.3476	1.4189
10.2251	1.3115
10.1056	1.2842
9.98873	1.3635
9.87458	1.5127
9.763	1.6233
9.65392	1.6011
9.54724	1.5159
9.44291	1.5139
9.34082	1.6919
9.24091	1.9546
9.14312	2.1765
9.04739	2.4387
8.95363	2.6746
8.8618	2.906
8.77183	3.1016
8.68368	3.2817
8.59727	3.4258
8.51257	3.6116
8.42951	3.8032
8.34807	3.9846
8.26819	4.1736
8.18981	4.321
8.11292	4.4094
8.03745	4.4516
7.96337	4.4729
7.89064	4.4568
7.81924	4.4521
7.74911	4.4944
7.68023	4.6059
7.61256	4.6841
7.54608	4.7341
7.48074	4.7602
7.41653	4.7515
7.35341	4.7388
7.29136	4.6958
7.23034	4.6294
7.17033	4.5857
7.11132	4.5432
7.05327	4.4875
6.99616	4.4831
6.93996	4.4907
6.88467	4.4612
6.83024	4.4299
6.77667	4.5044
6.72393	4.5246
6.67201	4.5308
6.62089	4.5373
6.57054	4.5212
6.52095	4.5188
6.4721	4.5141
6.42398	4.4741
6.37657	4.447
6.32986	4.3745
6.28382	4.323
6.23845	4.2558
6.19373	4.178
6.14965	4.0432
6.10619	3.8433
6.06334	3.7822
6.02109	3.8589
5.97942	3.8865
5.93832	3.873
5.89778	3.9123
5.8578	3.9463
5.81835	3.8413
5.77943	3.6587
5.74103	3.5361
5.70314	3.5786
5.66574	3.6863
5.62883	3.7505
5.5924	3.78
5.55644	3.8154
5.52093	3.8713
5.48588	3.9319
5.45127	3.9648
5.41709	3.9787
5.38334	4.0139
5.35	4.0496
5.31708	4.1118
5.28456	4.1499
5.25243	4.1643
5.2207	4.1853
5.18934	4.2004
5.15836	4.2356
5.12775	4.291
5.09749	4.3545
5.0676	4.4189
5.03805	4.4685
5.00884	4.5051
4.97998	4.5408
4.95144	4.584
4.92322	4.6147
4.89533	4.6404
4.86775	4.6816
4.84048	4.7139
4.81351	4.7461
4.78684	4.7744
4.76047	4.8091
4.73439	4.8364
4.70859	4.8679
4.68306	4.8899
4.65782	4.9202
4.63284	4.9504
4.60814	4.9866
4.58369	5.0195
4.5595	5.0522
4.53557	5.0847
4.51188	5.1257
4.48845	5.1577
4.46525	5.189
4.44229	5.2287
4.41957	5.2688
4.39708	5.3069
4.37481	5.3542
4.35277	5.3882
4.33096	5.4204
4.30935	5.4626
4.28797	5.5012
4.26679	5.5481
4.24583	5.5889
4.22506	5.6321
4.2045	5.6741
4.18414	5.7126
4.16398	5.7488
4.14401	5.7869
4.12423	5.8225
4.10464	5.8506
4.08523	5.8967
4.066	5.9299
4.04696	5.9697
4.02809	5.9978
4.0094	6.0273
3.99088	6.0618
3.97253	6.0915
3.95435	6.1294
3.93634	6.1797
3.91848	6.2051
3.90079	6.2456
3.88326	6.2724
3.86589	6.2881
3.84867	6.3157
3.8316	6.3508
3.81468	6.373
3.79791	6.4072
3.78129	6.4346
3.76482	6.4682
3.74848	6.4883
3.73229	6.5007
3.71624	6.5205
3.70032	6.5354
3.68454	6.5525
3.6689	6.5657
3.65338	6.5859
3.638	6.6033
3.62275	6.6199
3.60762	6.6286
3.59262	6.6326
3.57775	6.633
3.56299	6.6118
3.54836	6.5957
3.53385	6.532
3.51945	6.352
3.50517	5.8447
3.49101	6.0327
3.47696	6.1391
3.46303	6.1633
3.4492	6.0071
3.43549	5.7563
3.42188	5.2834
3.40838	5.4133
3.39499	5.8323
3.38171	5.8027
3.36852	6.0322
3.35544	6.341
3.34246	6.4663
3.32958	6.4995
3.3168	6.518
3.30411	6.5107
3.29153	6.5088
3.27903	6.4985
3.26664	6.469
3.25433	6.4472
3.24212	6.4204
3.23	6.3962
3.21797	6.355
3.20603	6.3293
3.19418	6.289
3.18241	6.2544
3.17074	6.2273
3.15914	6.1811
3.14763	6.1452
3.13621	6.1155
3.12487	6.083
3.11361	6.0535
3.10243	6.0193
3.09133	5.9927
3.0803	5.9678
3.06936	5.9294
3.0585	5.8992
3.04771	5.8762
3.037	5.8454
3.02636	5.824
3.0158	5.8135
3.00531	5.7842
2.99489	5.7617
2.98454	5.7439
2.97427	5.7375
2.96407	5.7261
2.95393	5.7102
2.94387	5.7021
2.93387	5.7016
2.92394	5.7043
2.91408	5.7038
2.90429	5.7153
2.89456	5.7307
2.88489	5.7466
2.87529	5.7629
2.86576	5.7847
2.85628	5.812
2.84687	5.831
2.83752	5.8249
2.82823	5.801
2.81901	5.7927
2.80984	5.8052
2.80073	5.8091
2.79168	5.8313
2.78269	5.8901
2.77376	5.9807
2.76488	6.0686
2.75606	6.1882
2.7473	6.428
2.73859	6.6604
2.72994	6.9033
2.72134	7.0564
2.7128	7.1504
2.70431	7.2532
2.69587	7.3686
2.68748	7.4472
2.67915	7.4746
2.67087	7.4863
2.66264	7.5422
2.65446	7.5395
2.64633	7.541
2.63825	7.5339
2.63021	7.52
2.62223	7.5
2.6143	7.5075
2.60641	7.5032
2.59857	7.5129
2.59078	7.5041
2.58304	7.4765
2.57534	7.4753
2.56768	7.4582
2.56008	7.4536
2.55251	7.4155
2.54499	7.4016
2.53752	7.4219
2.53009	7.4011
2.5227	7.3845
2.51536	7.3554
2.50806	7.3374
2.5008	7.3406
2.49358	7.3413
2.4864	7.3193
2.47927	7.3078
2.47218	7.2969
2.46512	7.2973
2.45811	7.2825
2.45114	7.2671
2.4442	7.2812
2.43731	7.251
2.43045	7.2649
2.42363	7.2339
2.41685	7.2322
2.41011	7.2529
2.40341	7.2243
2.39674	7.2041
2.39011	7.2097
2.38352	7.1758
2.37696	7.1816
2.37044	7.1955
2.36395	7.1672
2.35751	7.1577
2.35109	7.1296
2.34471	7.1274
2.33836	7.1355
2.33205	7.1247
2.32578	7.1125
2.31953	7.1201
2.31332	7.1111
2.30714	7.102
2.301	7.1008
2.29489	7.114
2.28881	7.1108
2.28276	7.0867
2.27675	7.0813
2.27076	7.1147
2.26481	7.1101
2.25889	7.105
2.253	7.1223
2.24714	7.1101
2.24131	7.1487
2.23551	7.1387
2.22974	7.1272
2.224	7.0901
2.21829	7.1096
2.21261	7.1079
2.20696	7.1118
2.20134	7.0818
2.19574	7.082
2.19018	7.1103
2.18464	7.0996
2.17913	7.0932
2.17365	7.103
2.16819	7.1164
2.16277	7.1147
2.15737	7.1487
2.15199	7.1084
2.14665	7.1018
2.14133	7.0984
2.13603	7.1262
2.13077	7.1201
2.12552	7.1521
2.12031	7.1565
2.11512	7.1269
2.10995	7.0942
2.10481	7.1511
2.0997	7.1465
2.09461	7.1731
2.08954	7.1443
2.0845	7.1589
2.07948	7.1584
