Name: Dingo Pup Donga
Type: Stony Meteorites
Class: Achondrite
Subclass: Urelite
Particle Size: 0-75 micrometers
Sample No.: Dingo Pup Donga
Owner: JHU
Origin: Meteorite found in Australia in 1965.  Smithsonian sample No. USNM
Description: None.
Measurement: Bidirectional reflectance
X Units: Wavelength (micrometers)
Y Units: Reflectance (percent)
wavelength	value
25.044	1.3015
24.339	1.2209
23.672	1.302
23.041	1.1887
22.442	0.9866
21.874	0.9902
21.334	0.9463
20.82	0.9531
20.33	0.9766
19.863	1.199
19.416	1.2778
18.99	1.2485
18.581	1.0793
18.19	1.0029
17.815	0.936
17.455	0.874
17.109	0.8276
16.777	0.7825
16.458	0.7695
16.15	0.7312
15.854	0.6792
15.568	0.5898
15.292	0.5554
15.027	0.5642
14.77	0.6184
14.521	0.6929
14.281	0.7944
14.049	0.8904
13.824	0.9089
13.607	0.9543
13.396	1.0903
13.191	1.176
12.993	1.2446
12.8	1.2471
12.614	1.2068
12.432	1.197
12.256	1.1169
12.084	1.0679
11.918	0.928
11.755	0.9636
11.598	1.0603
11.444	1.2004
11.294	1.2026
11.149	1.158
11.007	1.1392
10.868	1.1948
10.733	1.2476
10.602	1.2573
10.473	1.1816
10.348	1.0757
10.225	0.9954
10.106	0.9673
9.9887	0.9548
9.8746	0.9241
9.763	0.8936
9.6539	0.9075
9.5472	0.9614
9.4429	0.9939
9.3408	1.0081
9.2409	0.9641
9.1431	0.9255
9.0474	0.9089
8.9536	0.884
8.8618	0.8511
8.7718	0.7756
8.6837	0.7366
8.5973	0.7256
8.5126	0.7402
8.4295	0.7878
8.3481	0.8496
8.2682	0.9287
8.1898	1.0264
8.1129	1.1304
8.0374	1.2507
7.9634	1.3755
7.8906	1.4893
7.8192	1.5774
7.7491	1.6399
7.6802	1.6721
7.6126	1.666
7.5461	1.6997
7.4807	1.7551
7.4165	1.8022
7.3534	1.8462
7.2914	1.8679
7.2303	1.8911
7.1703	1.9089
7.1113	1.9255
7.0533	1.9326
6.9962	1.9617
6.94	1.9988
6.8847	2.0273
6.8302	2.052
6.7767	2.0872
6.7239	2.1101
6.672	2.1221
6.6209	2.1316
6.5705	2.1453
6.5209	2.1514
6.4721	2.1392
6.424	2.1218
6.3766	2.0896
6.3299	2.0539
6.2838	2.0286
6.2385	1.9998
6.1937	1.9475
6.1496	1.9163
6.1062	1.9373
6.0633	1.9399
6.0211	1.9363
5.9794	1.9778
5.9383	2.0444
5.8978	2.115
5.8578	2.1697
5.8184	2.208
5.7794	2.2434
5.741	2.2444
5.7031	2.2278
5.6657	2.1951
5.6288	2.175
5.5924	2.2078
5.5564	2.2739
5.5209	2.3025
5.4859	2.3052
5.4513	2.3032
5.4171	2.322
5.3833	2.3411
5.35	2.3584
5.3171	2.3664
5.2846	2.3647
5.2524	2.3682
5.2207	2.3555
5.1893	2.3589
5.1584	2.3594
5.1277	2.3691
5.0975	2.3838
5.0676	2.3979
5.038	2.4155
5.0088	2.4221
4.98	2.4272
4.9514	2.4243
4.9232	2.4304
4.8953	2.4551
4.8678	2.4846
4.8405	2.5046
4.8135	2.5237
4.7868	2.5317
4.7605	2.5393
4.7344	2.5518
4.7086	2.5559
4.6831	2.5596
4.6578	2.5732
4.6328	2.5764
4.6081	2.581
4.5837	2.5867
4.5595	2.5928
4.5356	2.5923
4.5119	2.5923
4.4884	2.5935
4.4652	2.5964
4.4423	2.5959
4.4196	2.5957
4.3971	2.595
4.3748	2.5957
4.3528	2.5976
4.331	2.5903
4.3094	2.5937
4.288	2.5911
4.2668	2.5964
4.2458	2.5964
4.2251	2.5974
4.2045	2.5969
4.1841	2.5937
4.164	2.5915
4.144	2.5933
4.1242	2.5874
4.1046	2.5898
4.0852	2.5847
4.066	2.582
4.047	2.5767
4.0281	2.5747
4.0094	2.574
3.9909	2.5679
3.9725	2.5561
3.9544	2.5566
3.9363	2.5542
3.9185	2.5383
3.9008	2.5293
3.8833	2.5251
3.8659	2.5149
3.8487	2.5137
3.8316	2.5019
3.8147	2.4893
3.7979	2.4858
3.7813	2.4788
3.7648	2.4661
3.7485	2.4526
3.7323	2.4392
3.7162	2.4326
3.7003	2.4163
3.6845	2.4089
3.6689	2.3914
3.6534	2.3804
3.638	2.3755
3.6227	2.3628
3.6076	2.3491
3.5926	2.3335
3.5777	2.3164
3.563	2.3098
3.5484	2.2898
3.5338	2.2786
3.5195	2.26
3.5052	2.2351
3.491	2.228
3.477	2.2129
3.463	2.2009
3.4492	2.188
3.4355	2.1724
3.4219	2.1387
3.4084	2.1269
3.395	2.1211
3.3817	2.1152
3.3685	2.0969
3.3554	2.0835
3.3425	2.0747
3.3296	2.0571
3.3168	2.0373
3.3041	2.0217
3.2915	2.0019
3.279	1.9766
3.2666	1.9541
3.2543	1.9294
3.2421	1.9119
3.23	1.8921
3.218	1.8689
3.206	1.844
3.1942	1.8269
3.1824	1.8088
3.1707	1.7881
3.1591	1.7744
3.1476	1.7732
3.1362	1.7554
3.1249	1.7478
3.1136	1.7485
3.1024	1.7378
3.0913	1.7436
3.0803	1.7444
3.0694	1.7385
3.0585	1.7473
3.0477	1.7415
3.037	1.7466
3.0264	1.7466
3.0158	1.7385
3.0053	1.7371
2.9949	1.7329
2.9845	1.731
2.9743	1.7319
2.9641	1.7307
2.9539	1.7234
2.9439	1.718
2.9339	1.7124
2.9239	1.7248
2.9141	1.7388
2.9043	1.738
2.8946	1.7556
2.8849	1.7568
2.8753	1.7686
2.8658	1.771
2.8563	1.7756
2.8469	1.7913
2.8375	1.8042
2.8282	1.8025
2.819	1.8223
2.8098	1.8489
2.8007	1.8757
2.7917	1.904
2.7827	1.9595
2.7738	1.9978
2.7649	2.0496
2.7561	2.0994
2.7473	2.1418
2.7386	2.1968
2.7299	2.231
2.7213	2.2673
2.7128	2.2969
2.7043	2.3413
2.6959	2.3691
2.6875	2.3921
2.6791	2.4102
2.6709	2.4185
2.6626	2.4453
2.6545	2.4402
2.6463	2.449
2.6382	2.4329
2.6302	2.4453
2.6222	2.4329
2.6143	2.4368
2.6064	2.4492
2.5986	2.4482
2.5908	2.4441
2.583	2.4238
2.5753	2.4275
2.5677	2.4331
2.5601	2.4304
2.5525	2.4343
2.545	2.427
2.5375	2.4397
2.5301	2.4158
2.5227	2.4238
2.5154	2.4067
2.5081	2.3987
2.5008	2.4038
2.4936	2.4036
2.4864	2.3953
2.4793	2.3882
2.4722	2.3872
2.4651	2.3826
2.4581	2.3704
2.4511	2.3738
2.4442	2.386
2.4373	2.3594
2.4305	2.3738
2.4236	2.3652
2.4169	2.3542
2.4101	2.3555
2.4034	2.3567
2.3967	2.3657
2.3901	2.3542
2.3835	2.3606
2.377	2.3464
2.3704	2.3613
2.364	2.331
2.3575	2.3557
2.3511	2.3296
2.3447	2.3433
2.3384	2.3345
2.3321	2.3325
2.3258	2.3447
2.3195	2.3174
2.3133	2.3638
2.3071	2.3235
2.301	2.3227
2.2949	2.3071
2.2888	2.343
2.2828	2.3169
2.2767	2.3289
2.2708	2.3206
2.2648	2.314
2.2589	2.356
2.253	2.3047
2.2471	2.3096
2.2413	2.312
2.2355	2.3008
2.2297	2.2944
2.224	2.3298
2.2183	2.3127
2.2126	2.3274
2.207	2.3088
2.2013	2.3022
2.1957	2.3245
2.1902	2.3076
2.1846	2.2971
2.1791	2.2859
2.1736	2.3054
2.1682	2.313
2.1628	2.3003
2.1574	2.2898
2.152	2.3227
2.1466	2.2991
2.1413	2.3115
2.136	2.3013
2.1308	2.3083
2.1255	2.3157
2.1203	2.291
2.1151	2.323
2.11	2.3186
2.1048	2.2937
2.0997	2.3345
2.0946	2.2988
2.0895	2.3157
2.0845	2.3345
2.0795	2.3296
