Name: Datolite CaBSiO4(OH)
Type: Mineral
Class: Silicates
Subclass: Nesosilicates (Ring Silicates) (Humite Group)
Particle Size: Fine  (0 - 74 Micrometers)
Sample No.: datolite.1
Owner: JHU
Wavelength Range: IR
Origin: Hunt and Salisbury Collection #442B;  Sample from
Description: White particulate samples appear to be pure datolite,
Measurement: Bidirectional reflectance
X Units: Wavelength (micrometers)
Y Units: Reflectance (percent)
wavelength	value
25.0442	3.1162
24.3388	2.1252
23.6719	1.3599
23.0407	2.2954
22.4422	2.1663
21.8741	1.9492
21.334	1.5261
20.8199	1.2788
20.33	1.7568
19.8627	1.8904
19.4163	2.0708
18.9896	1.9607
18.5812	1.7036
18.19	1.0708
17.815	0.9492
17.4551	0.9365
17.1094	1.5352
16.7772	2.1357
16.4576	2.7571
16.15	2.7986
15.8537	3.5703
15.568	3.6907
15.2925	3.53
15.0265	3.0483
14.7697	1.8748
14.5214	1.0356
14.2814	1.2871
14.0492	2.4258
13.8244	3.0906
13.6067	3.0893
13.3957	2.9109
13.1912	2.4905
12.9929	1.8967
12.8004	1.3633
12.6135	0.96
12.432	1.4873
12.2557	1.8208
12.0843	1.751
11.9176	1.4658
11.7555	1.3249
11.5977	1.1755
11.444	1.4739
11.2944	1.5879
11.1487	1.1062
11.0067	1.2964
10.8682	1.4604
10.7332	1.4885
10.6015	1.6816
10.473	1.3918
10.3476	1.1011
10.2251	1.4932
10.1056	1.6545
9.98873	1.6467
9.87458	1.8298
9.763	1.4458
9.65392	1.4275
9.54724	1.5588
9.44291	1.5447
9.34082	1.3457
9.24091	1.4429
9.14312	1.6179
9.04739	1.7451
8.95363	1.9102
8.8618	2.0652
8.77183	2.0854
8.68368	1.6826
8.59727	1.7778
8.51257	2.105
8.42951	2.5254
8.34807	2.4021
8.26819	1.897
8.18981	1.4482
8.11292	1.1094
8.03745	0.9351
7.96337	0.8391
7.89064	0.8782
7.81924	1.0403
7.74911	1.28
7.68023	1.6118
7.61256	1.9495
7.54608	2.1174
7.48074	2.0395
7.41653	2.0044
7.35341	2.0842
7.29136	2.3542
7.23034	2.6855
7.17033	3.0244
7.11132	3.2131
7.05327	3.2427
6.99616	3.23
6.93996	3.3796
6.88467	3.4641
6.83024	3.5989
6.77667	3.7527
6.72393	3.8122
6.67201	3.8137
6.62089	3.938
6.57054	4.0857
6.52095	3.9424
6.4721	3.7339
6.42398	3.831
6.37657	4.1399
6.32986	4.282
6.28382	4.3391
6.23845	4.385
6.19373	4.48
6.14965	4.509
6.10619	4.5166
6.06334	4.5051
6.02109	4.6465
5.97942	4.8276
5.93832	5.0117
5.89778	5.1553
5.8578	5.0864
5.81835	5.1792
5.77943	5.6064
5.74103	6.0525
5.70314	6.1545
5.66574	6.1963
5.62883	6.0036
5.5924	5.5798
5.55644	5.2475
5.52093	5.1643
5.48588	4.9043
5.45127	4.6995
5.41709	4.5632
5.38334	4.333
5.35	4.3523
5.31708	4.5503
5.28456	4.7292
5.25243	4.9805
5.2207	5.2659
5.18934	5.4848
5.15836	5.6794
5.12775	5.8325
5.09749	5.9665
5.0676	6.1152
5.03805	6.2029
5.00884	6.3423
4.97998	6.5293
4.95144	6.7077
4.92322	6.9897
4.89533	7.2055
4.86775	7.3847
4.84048	7.573
4.81351	7.8169
4.78684	8.0542
4.76047	8.2099
4.73439	8.2783
4.70859	8.3896
4.68306	8.5364
4.65782	8.7522
4.63284	9.0071
4.60814	9.3862
4.58369	9.7815
4.5595	10.0945
4.53557	10.2932
4.51188	10.4033
4.48845	10.5473
4.46525	10.6526
4.44229	10.6474
4.41957	10.594
4.39708	10.476
4.37481	10.3679
4.35277	10.2387
4.33096	10.0749
4.30935	9.792
4.28797	9.3767
4.26679	9.1013
4.24583	9.3149
4.22506	9.8755
4.2045	10.4902
4.18414	10.9824
4.16398	11.3125
4.14401	11.528
4.12423	11.6675
4.10464	11.7712
4.08523	11.8276
4.066	11.8369
4.04696	11.7749
4.02809	11.6069
4.0094	11.3886
3.99088	11.0373
3.97253	10.9856
3.95435	11.2202
3.93634	11.5551
3.91848	11.6206
3.90079	11.6499
3.88326	11.6428
3.86589	11.5395
3.84867	11.7524
3.8316	11.8337
3.81468	11.9448
3.79791	12.0595
3.78129	12.0769
3.76482	11.9804
3.74848	11.7856
3.73229	11.6264
3.71624	11.717
3.70032	11.8672
3.68454	11.9741
3.6689	11.9841
3.65338	11.9897
3.638	12.0564
3.62275	12.0442
3.60762	11.9768
3.59262	11.789
3.57775	11.3012
3.56299	10.5747
3.54836	10.4756
3.53385	10.1416
3.51945	10.6509
3.50517	11.0034
3.49101	10.9936
3.47696	10.8283
3.46303	10.7795
3.4492	10.6318
3.43549	10.7107
3.42188	10.6843
3.40838	10.6675
3.39499	10.6487
3.38171	10.5542
3.36852	10.7282
3.35544	10.6462
3.34246	10.6804
3.32958	10.6223
3.3168	10.4634
3.30411	10.3762
3.29153	10.2151
3.27903	10.0161
3.26664	9.8713
3.25433	9.7275
3.24212	9.5705
3.23	9.6313
3.21797	9.6252
3.20603	9.4472
3.19418	9.4236
3.18241	9.4028
3.17074	9.4355
3.15914	9.3628
3.14763	9.3371
3.13621	9.4653
3.12487	9.3249
3.11361	9.3176
3.10243	9.2014
3.09133	9.0115
3.0803	8.896
3.06936	8.6523
3.0585	8.3889
3.04771	7.9265
3.037	7.5876
3.02636	7.5073
3.0158	7.7295
3.00531	7.8398
2.99489	7.6135
2.98454	7.3059
2.97427	7.0039
2.96407	6.7768
2.95393	6.5928
2.94387	6.2241
2.93387	6.4389
2.92394	6.1621
2.91408	5.1819
2.90429	4.9758
2.89456	4.1826
2.88489	2.9885
2.87529	1.6406
2.86576	0.7568
2.85628	0.6304
2.84687	2.3
2.83752	4.1853
2.82823	5.7651
2.81901	6.8728
2.80984	7.4778
2.80073	8.2104
2.79168	8.4912
2.78269	8.3794
2.77376	8.3286
2.76488	8.0986
2.75606	8.3391
2.7473	8.5237
2.73859	9.1577
2.72994	9.6689
2.72134	10.0754
2.7128	10.2151
2.70431	10.1599
2.69587	9.8261
2.68748	10.1216
2.67915	10.5805
2.67087	10.841
2.66264	10.812
2.65446	10.6889
2.64633	10.5913
2.63825	9.7116
2.63021	9.4839
2.62223	10.0735
2.6143	10.2024
2.60641	10.0259
2.59857	10.2634
2.59078	10.5256
2.58304	11.4436
2.57534	11.7639
2.56768	11.7173
2.56008	11.1108
2.55251	11.1333
2.54499	11.6367
2.53752	11.8908
2.53009	11.7143
2.5227	10.977
2.51536	10.9958
2.50806	11.3471
2.5008	11.3325
2.49358	10.6235
2.4864	10.5002
2.47927	9.8818
2.47218	9.0366
2.46512	9.7163
2.45811	10.2663
2.45114	9.9677
2.4442	9.4184
2.43731	9.4428
2.43045	10.8965
2.42363	10.9887
2.41685	8.1719
2.41011	7.1853
2.40341	8.8266
2.39674	8.7898
2.39011	8.3662
2.38352	9.5383
2.37696	12.1328
2.37044	13.4199
2.36395	13.8686
2.35751	13.8198
2.35109	13.1203
2.34471	12.2417
2.33836	12.8752
2.33205	13.1079
2.32578	12.8774
2.31953	13.0048
2.31332	12.9384
2.30714	13.3945
2.301	13.1401
2.29489	12.9106
2.28881	12.0957
2.28276	11.2207
2.27675	11.4521
2.27076	11.6255
2.26481	11.5229
2.25889	11.4604
2.253	11.6269
2.24714	11.956
2.24131	12.0903
2.23551	11.8576
2.22974	11.6147
2.224	11.4824
2.21829	11.8413
2.21261	12.3452
2.20696	12.7002
2.20134	12.6125
2.19574	12.3305
2.19018	12.2456
2.18464	12.0556
2.17913	11.549
2.17365	11.3501
2.16819	10.9551
2.16277	10.2451
2.15737	10.1133
2.15199	10.5415
2.14665	11.1176
2.14133	11.7964
2.13603	11.707
2.13077	11.3247
2.12552	11.2356
2.12031	11.4365
2.11512	12.1828
2.10995	13.2951
2.10481	14.0659
2.0997	14.5647
2.09461	14.8237
2.08954	14.9702
2.0845	14.809
2.07948	14.6513
