Name: Kyanite Al2SiO5
Type: Mineral
Class: Silicates
Subclass: Nesosilicates (Isolated Tetrahedra); (Al2SiO5 Group)
Particle Size: Coarse  (75-250 micrometers)
Sample No.: kyanite.1
Owner: JHU
Wavelength Range: IR
Origin: Brazil (?) via the Smithsonian (sample no. NMNH 139740)
Description: The sample consisted of two blue crystals, each about 1.5
Measurement: Bidirectional reflectance
X Units: Wavelength (micrometers)
Y Units: Reflectance (percent)
wavelength	value
25.0442	6.0893
24.3388	5.6816
23.6719	7.1443
23.0407	9.5078
22.4422	9.9687
21.8741	7.7158
21.334	9.2221
20.8199	6.3013
20.33	6.7178
19.8627	8.1155
19.4163	9.2317
18.9896	9.6811
18.5812	8.6513
18.19	9.5388
17.815	4.9348
17.4551	7.147
17.1094	8.0679
16.7772	8.9682
16.4576	8.5512
16.15	11.2444
15.8537	10.5715
15.568	12.9807
15.2925	9.8667
15.0265	8.7075
14.7697	10.738
14.5214	11.9731
14.2814	12.6299
14.0492	10.4087
13.8244	7.8991
13.6067	8.8103
13.3957	7.0049
13.1912	5.3313
12.9929	4.8867
12.8004	3.7993
12.6135	2.3877
12.432	1.6602
12.2557	1.8101
12.0843	2.104
11.9176	2.4216
11.7555	2.7224
11.5977	3.0652
11.444	3.594
11.2944	4.02
11.1487	4.7678
11.0067	4.5613
10.8682	4.626
10.7332	6.1079
10.6015	7.4746
10.473	8.1767
10.3476	9.5639
10.2251	10.6841
10.1056	9.4214
9.98873	7.9463
9.87458	9.8625
9.763	11.7776
9.65392	12.5158
9.54724	12.6706
9.44291	11.8076
9.34082	10.9968
9.24091	10.7302
9.14312	10.2636
9.04739	8.9834
8.95363	7.2187
8.8618	5.3017
8.77183	3.5476
8.68368	2.113
8.59727	1.0662
8.51257	0.5054
8.42951	0.4626
8.34807	0.6516
8.26819	0.8503
8.18981	1.0259
8.11292	1.2122
8.03745	1.3696
7.96337	1.5293
7.89064	1.6843
7.81924	1.8386
7.74911	1.9546
7.68023	2.0869
7.61256	2.2051
7.54608	2.29
7.48074	2.3784
7.41653	2.4304
7.35341	2.522
7.29136	2.6284
7.23034	2.7009
7.17033	2.7363
7.11132	2.802
7.05327	2.8513
6.99616	2.8718
6.93996	2.8892
6.88467	2.9018
6.83024	2.9587
6.77667	2.9578
6.72393	3.0063
6.67201	3.1313
6.62089	3.238
6.57054	3.3901
6.52095	3.519
6.4721	3.6582
6.42398	3.812
6.37657	3.9656
6.32986	4.1579
6.28382	4.2693
6.23845	4.3533
6.19373	4.4941
6.14965	4.6499
6.10619	4.8525
6.06334	5.1391
6.02109	5.3564
5.97942	5.5632
5.93832	5.9419
5.89778	6.3069
5.8578	6.5483
5.81835	6.6372
5.77943	6.6067
5.74103	6.4971
5.70314	5.896
5.66574	4.7883
5.62883	4.2002
5.5924	3.8267
5.55644	3.5608
5.52093	3.3965
5.48588	3.2956
5.45127	3.2727
5.41709	3.2483
5.38334	3.2236
5.35	3.2341
5.31708	3.2561
5.28456	3.3306
5.25243	3.4021
5.2207	3.3889
5.18934	3.4082
5.15836	3.4578
5.12775	3.5608
5.09749	3.8765
5.0676	4.3083
5.03805	4.7693
5.00884	5.269
4.97998	5.7082
4.95144	6.1304
4.92322	6.6374
4.89533	7.0617
4.86775	7.5061
4.84048	8.0163
4.81351	8.529
4.78684	9.0644
4.76047	9.4941
4.73439	9.7656
4.70859	9.9514
4.68306	10.0818
4.65782	10.1855
4.63284	10.2829
4.60814	10.3601
4.58369	10.4084
4.5595	10.4658
4.53557	10.4953
4.51188	10.5241
4.48845	10.5727
4.46525	10.6008
4.44229	10.6303
4.41957	10.6645
4.39708	10.6867
4.37481	10.7129
4.35277	10.7207
4.33096	10.7121
4.30935	10.6863
4.28797	10.6418
4.26679	10.6272
4.24583	10.665
4.22506	10.7129
4.2045	10.7551
4.18414	10.778
4.16398	10.7832
4.14401	10.7827
4.12423	10.8017
4.10464	10.8156
4.08523	10.8488
4.066	10.8777
4.04696	10.8933
4.02809	10.9126
4.0094	10.9345
3.99088	10.9614
3.97253	10.9746
3.95435	11.0029
3.93634	11.0307
3.91848	11.0542
3.90079	11.0803
3.88326	11.1064
3.86589	11.1245
3.84867	11.1401
3.8316	11.1379
3.81468	11.1264
3.79791	11.093
3.78129	11.0686
3.76482	11.0263
3.74848	10.9482
3.73229	10.8994
3.71624	10.8838
3.70032	10.8694
3.68454	10.8657
3.6689	10.8691
3.65338	10.8728
3.638	10.8496
3.62275	10.8459
3.60762	10.8298
3.59262	10.8017
3.57775	10.7654
3.56299	10.7495
3.54836	10.7407
3.53385	10.7214
3.51945	10.7129
3.50517	10.6762
3.49101	10.6919
3.47696	10.7102
3.46303	10.7251
3.4492	10.7221
3.43549	10.6999
3.42188	10.6718
3.40838	10.6806
3.39499	10.718
3.38171	10.7231
3.36852	10.7617
3.35544	10.7842
3.34246	10.7966
3.32958	10.8171
3.3168	10.8254
3.30411	10.8227
3.29153	10.8244
3.27903	10.8147
3.26664	10.7966
3.25433	10.7729
3.24212	10.7627
3.23	10.7544
3.21797	10.7407
3.20603	10.7114
3.19418	10.6914
3.18241	10.6801
3.17074	10.6601
3.15914	10.6469
3.14763	10.6203
3.13621	10.5971
3.12487	10.573
3.11361	10.5488
3.10243	10.5215
3.09133	10.4958
3.0803	10.4519
3.06936	10.3994
3.0585	10.3569
3.04771	10.3166
3.037	10.3359
3.02636	10.3073
3.0158	10.2859
3.00531	10.2441
2.99489	10.219
2.98454	10.1858
2.97427	10.1299
2.96407	10.0344
2.95393	9.8974
2.94387	9.9587
2.93387	9.8152
2.92394	9.7571
2.91408	9.6418
2.90429	9.5678
2.89456	9.5315
2.88489	9.5552
2.87529	9.6655
2.86576	9.8034
2.85628	9.9077
2.84687	10.0205
2.83752	10.0368
2.82823	10.0351
2.81901	10.0517
2.80984	10.0573
2.80073	10.0708
2.79168	10.1064
2.78269	10.0688
2.77376	10.0791
2.76488	9.6245
2.75606	9.8427
2.7473	9.8833
2.73859	9.6015
2.72994	9.5124
2.72134	9.57
2.7128	9.7204
2.70431	9.6125
2.69587	10.2495
2.68748	10.6086
2.67915	10.7422
2.67087	10.8274
2.66264	10.8086
2.65446	10.8115
2.64633	10.7617
2.63825	10.7871
2.63021	10.79
2.62223	10.7549
2.6143	10.7541
2.60641	10.7365
2.59857	10.7363
2.59078	10.7158
2.58304	10.7119
2.57534	10.7099
2.56768	10.6797
2.56008	10.6828
2.55251	10.6655
2.54499	10.6467
2.53752	10.6257
2.53009	10.6172
2.5227	10.5952
2.51536	10.5625
2.50806	10.5669
2.5008	10.5771
2.49358	10.5437
2.4864	10.5036
2.47927	10.467
2.47218	10.4719
2.46512	10.4311
2.45811	10.4463
2.45114	10.4233
2.4442	10.4028
2.43731	10.4199
2.43045	10.3904
2.42363	10.3572
2.41685	10.3857
2.41011	10.3716
2.40341	10.3691
2.39674	10.3281
2.39011	10.3125
2.38352	10.3091
2.37696	10.3193
2.37044	10.2988
2.36395	10.27
2.35751	10.2927
2.35109	10.27
2.34471	10.2558
2.33836	10.2426
2.33205	10.2426
2.32578	10.2314
2.31953	10.2143
2.31332	10.2353
2.30714	10.2495
2.301	10.2473
2.29489	10.2353
2.28881	10.2241
2.28276	10.1899
2.27675	10.2597
2.27076	10.1916
2.26481	10.206
2.25889	10.2195
2.253	10.2339
2.24714	10.1943
2.24131	10.1931
2.23551	10.2121
2.22974	10.2436
2.224	10.2392
2.21829	10.1887
2.21261	10.209
2.20696	10.1833
2.20134	10.1902
2.19574	10.188
2.19018	10.2043
2.18464	10.1936
2.17913	10.1799
2.17365	10.2265
2.16819	10.2402
2.16277	10.2129
2.15737	10.2295
2.15199	10.2668
2.14665	10.2456
2.14133	10.259
2.13603	10.2641
2.13077	10.2529
2.12552	10.2661
2.12031	10.2632
2.11512	10.2256
2.10995	10.2871
2.10481	10.2444
2.0997	10.2573
2.09461	10.29
2.08954	10.289
2.0845	10.3108
2.07948	10.301
