Name: Oolitic Limestone
Type: Rocks
Class: Sedimentary
Subclass: Limestone
Particle Size: 0 - 75 Micrometers
Sample No.: limestone.4
Owner: JHU
Wavelength Range: All
Origin: Sample No. 354,  The Hunt and Salisbury Collection at the U.S.
Description: Ooids (~ 1 mm diameter) with good laminar structure
Measurement: Directional (10 Degree) Hemispherical Reflectance
X Units: Wavelength (micrometers)
Y Units: Reflectance (percent)
wavelength	value
14.983	23.28
14.645	24.456
14.321	18.02
14.011	1.4602
13.715	20.336
13.43	26.233
13.158	24.571
12.896	21.771
12.644	22.282
12.402	24.953
12.169	27.326
11.945	26.829
11.729	15.622
11.52	7.6034
11.319	10.9
11.125	21.182
10.937	21.517
10.755	19.605
10.58	18.572
10.41	19.454
10.245	17.276
10.086	15.274
9.931	13.853
9.781	13.808
9.636	15.77
9.495	17.535
9.358	17.999
9.225	17.543
9.095	20.355
8.969	20.539
8.847	20.699
8.727	18.158
8.612	12.75
8.499	11.998
8.389	13.182
8.281	15.028
8.177	15.306
8.075	13.898
7.976	14.05
7.879	12.618
7.784	11.715
7.692	10.369
7.601	8.3113
7.513	7.8287
7.427	7.0363
7.343	6.2077
7.261	5.4273
7.18	5.7672
7.102	7.4753
7.025	8.0295
6.949	8.0053
6.875	8.6123
6.803	9.1922
6.733	9.9399
6.663	11.002
6.596	12.683
6.529	14.635
6.464	15.615
6.4	9.8129
6.338	4.9312
6.276	3.1241
6.216	2.6322
6.157	2.5578
6.099	2.9983
6.042	3.8419
5.986	5.1526
5.931	6.3289
5.878	7.4744
5.825	7.4455
5.773	7.1345
5.722	8.1633
5.672	10.432
5.623	10.886
5.574	1.6688
5.527	10.08
5.48	21.27
5.434	28.46
5.389	33.966
5.345	37.792
5.301	41.581
5.258	44.648
5.215	47.479
5.174	49.084
5.133	50.023
5.093	45.209
5.053	51.528
5.014	51.506
4.975	51.775
4.937	52.249
4.9	52.971
4.863	53.758
4.827	54.234
4.791	54.189
4.756	52.524
4.721	46.079
4.687	34.197
4.654	34.678
4.62	44.361
4.588	47.315
4.556	47.846
4.524	47.94
4.492	48.963
4.461	51.806
4.431	53.974
4.401	54.662
4.371	54.525
4.342	51.659
4.313	47.595
4.284	39.902
4.256	37.689
4.229	45.069
4.201	49.739
4.174	49.521
4.147	47.565
4.121	43.939
4.095	39.693
4.069	33.83
4.044	23.855
4.019	12.396
3.994	5.1995
3.97	4.2066
3.945	7.5802
3.921	11.171
3.898	12.319
3.875	12.933
3.852	13.654
3.829	17.749
3.806	27.42
3.784	42.5
3.762	47.408
3.74	49.246
3.719	50.875
3.698	51.432
3.677	51.421
3.656	50.858
3.636	49.928
3.615	48.548
3.595	45.726
3.575	39.238
3.556	37.125
3.536	29.493
3.517	15.737
3.498	10.907
3.479	8.2762
3.461	13.611
3.442	15.634
3.424	15.867
3.406	15.481
3.388	14.689
3.371	13.938
3.353	11.394
3.336	23.621
3.319	34.703
3.302	38.718
3.285	40.959
3.269	42.447
3.252	43.222
3.236	43.612
3.22	43.875
3.204	43.874
3.188	43.6
3.173	42.742
3.157	40.67
3.142	40.148
3.127	40.108
3.112	38.554
3.097	38.777
3.082	39.557
3.067	39.717
3.053	39.816
3.039	39.796
3.025	39.671
3.011	39.408
2.997	39.165
2.983	38.86
2.969	38.452
2.956	38.117
2.942	37.936
2.929	37.942
2.916	38.067
2.903	38.375
2.89	38.785
2.877	39.269
2.864	39.769
2.852	40.196
2.839	40.475
2.827	40.524
2.814	40.282
2.802	39.534
2.79	37.459
2.778	38.042
2.766	38.509
2.755	40.05
2.743	42.016
2.731	44.572
2.72	48.048
2.708	49.078
2.697	52.952
2.686	56.933
2.675	58.079
2.664	58.523
2.653	58.735
2.642	58.769
2.632	58.805
2.621	58.683
2.61	58.557
2.6	58.354
2.59	57.957
2.579	57.406
2.569	56.707
2.559	54.838
2.549	51.036
2.539	47.75
2.529	48.621
2.519	50.849
2.509	51.768
2.5	52.126
2.49	52.52
2.481	53.368
2.471	54.592
2.462	55.706
2.452	56.393
2.443	56.893
2.434	57.22
2.425	57.487
2.416	57.672
2.407	57.675
2.398	57.673
2.389	57.611
2.38	57.4
2.372	57.016
2.363	56.078
2.354	54.367
2.346	52.919
2.337	52.653
2.329	53.324
2.321	54.138
2.312	54.614
2.304	54.806
2.296	55.07
2.288	55.408
2.28	55.869
2.272	56.265
2.264	56.547
2.256	56.704
2.248	56.829
2.24	56.919
2.233	57.026
2.225	57.007
2.217	57.019
2.21	56.941
2.202	56.996
2.195	56.981
2.187	57.045
2.18	57.053
2.173	56.957
2.166	56.844
2.158	56.819
2.151	56.738
2.144	56.801
2.137	56.878
2.13	56.87
2.123	56.752
2.116	56.766
2.109	56.729
2.102	56.765
2.095	56.767
2.089	56.71
2.082	56.638
2.06	56.453
2.028	55.955
1.996	54.837
1.964	54.068
1.932	53.137
1.9	54.775
1.868	52.245
1.836	53.06
1.804	52.995
1.772	52.018
1.74	52.104
1.708	52.016
1.676	51.661
1.644	50.922
1.612	50.834
1.58	50.79
1.548	50.393
1.516	49.975
1.484	49.585
1.452	49.157
1.42	48.729
1.388	49.028
1.356	48.187
1.324	47.681
1.292	47.429
1.26	47.292
1.228	47.471
1.196	47.22
1.164	46.222
1.132	46.295
1.1	45.899
1.068	45.77
1.036	44.938
1.004	44.599
0.972	44.196
0.94	43.87
0.908	43.336
0.876	42.978
0.844	42.715
0.812	42.813
0.795	42.12
0.787	42.009
0.779	41.797
0.771	41.566
0.763	41.273
0.755	41.177
0.747	41.154
0.739	40.977
0.731	40.79
0.723	40.375
0.715	40.207
0.707	40.031
0.699	40.163
0.691	40.227
0.683	39.748
0.675	39.748
0.667	39.427
0.659	39.447
0.651	39.326
0.643	38.642
0.635	38.642
0.627	38.457
0.619	38.453
0.611	37.952
0.603	37.576
0.595	37.733
0.587	37.305
0.579	37.383
0.571	37.157
0.563	36.244
0.555	35.015
0.547	35.421
0.539	34.73
0.531	34.574
0.523	33.714
0.515	33.384
0.507	32.795
0.499	32.102
0.491	31.778
0.483	31.582
0.475	31.154
0.467	30.611
0.459	30.374
0.451	30.345
0.443	29.538
0.435	29.213
0.427	28.366
0.419	28.096
0.411	27.375
0.403	26.872
