Name: Muscovite KAl2(Si3Al)O10(OH,F)2
Type: Mineral
Class: Silicates
Subclass: Phyllosilicates (Sheet Silicates); (MicaGroup)
Particle Size: Coarse  (75-250  Micrometers)
Sample No.: muscov.1
Owner: JHU
Wavelength Range: IR
Origin: Methuen Township, Ontario via Bruce Hemingway, USGS
Description: The sample consisted of clear, transparent "books" of
Measurement: Bidirectional reflectance
X Units: Wavelength (micrometers)
Y Units: Reflectance (percent)
wavelength	value
25.0442	11.4092
24.3388	11.0859
23.6719	10.6367
23.0407	10.4394
22.4422	10.5337
21.8741	11.4883
21.334	12.8352
20.8199	14.1596
20.33	14.5664
19.8627	13.2592
19.4163	11.9809
18.9896	12.6528
18.5812	15.2263
18.19	16.5527
17.815	16.3823
17.4551	15.3476
17.1094	16.2673
16.7772	16.7609
16.4576	13.4421
16.15	9.9323
15.8537	7.6992
15.568	5.5129
15.2925	4.5278
15.0265	5.0159
14.7697	5.3181
14.5214	5.3877
14.2814	5.468
14.0492	5.7505
13.8244	5.7287
13.6067	5.8474
13.3957	5.9997
13.1912	5.5952
12.9929	5.1455
12.8004	5.6455
12.6135	5.75
12.432	5.657
12.2557	5.8948
12.0843	6.2705
11.9176	6.7502
11.7555	6.8816
11.5977	6.841
11.444	6.5359
11.2944	6.4646
11.1487	6.5544
11.0067	6.6452
10.8682	6.6164
10.7332	6.5598
10.6015	6.4958
10.473	6.8594
10.3476	7.3672
10.2251	7.8852
10.1056	8.5266
9.98873	8.8979
9.87458	9.5862
9.763	10.6433
9.65392	12.8823
9.54724	13.6464
9.44291	11.4692
9.34082	12.6579
9.24091	14.7234
9.14312	16.4257
9.04739	17.3864
8.95363	18.5876
8.8618	19.3752
8.77183	19.1591
8.68368	15.9514
8.59727	13.7111
8.51257	11.237
8.42951	8.176
8.34807	5.1438
8.26819	3.1413
8.18981	3.1304
8.11292	3.8198
8.03745	4.4866
7.96337	5.0647
7.89064	5.6045
7.81924	6.0825
7.74911	6.5337
7.68023	7.022
7.61256	7.4919
7.54608	7.7912
7.48074	7.9197
7.41653	8.0093
7.35341	8.156
7.29136	8.3972
7.23034	8.822
7.17033	9.282
7.11132	9.604
7.05327	9.791
6.99616	9.8747
6.93996	9.9912
6.88467	10.2011
6.83024	10.5864
6.77667	11.1706
6.72393	11.7956
6.67201	12.3269
6.62089	12.7087
6.57054	12.9287
6.52095	13.0422
6.4721	12.9826
6.42398	12.8403
6.37657	12.7634
6.32986	12.8015
6.28382	12.9104
6.23845	13.0151
6.19373	12.9665
6.14965	12.7805
6.10619	12.5495
6.06334	12.2993
6.02109	11.9963
5.97942	11.6738
5.93832	11.3752
5.89778	11.1801
5.8578	11.0805
5.81835	11.0285
5.77943	10.9443
5.74103	10.8642
5.70314	10.9236
5.66574	11.0166
5.62883	11.0739
5.5924	11.0798
5.55644	11.07
5.52093	11.0598
5.48588	11.0493
5.45127	11.1028
5.41709	11.2068
5.38334	11.3742
5.35	11.676
5.31708	12.1745
5.28456	12.8322
5.25243	13.5446
5.2207	14.217
5.18934	14.9025
5.15836	15.5337
5.12775	16.0778
5.09749	16.4152
5.0676	16.5376
5.03805	16.5305
5.00884	16.4072
4.97998	16.2431
4.95144	16.0822
4.92322	16.0222
4.89533	16.0905
4.86775	16.2524
4.84048	16.396
4.81351	16.5398
4.78684	16.7043
4.76047	16.9433
4.73439	17.1447
4.70859	17.3115
4.68306	17.468
4.65782	17.6582
4.63284	17.8879
4.60814	18.0949
4.58369	18.2607
4.5595	18.4209
4.53557	18.5949
4.51188	18.8112
4.48845	19.0524
4.46525	19.2771
4.44229	19.4931
4.41957	19.6835
4.39708	19.8005
4.37481	19.8454
4.35277	19.833
4.33096	19.8122
4.30935	19.7675
4.28797	19.7351
4.26679	19.7204
4.24583	19.707
4.22506	19.7204
4.2045	19.7482
4.18414	19.7731
4.16398	19.8032
4.14401	19.832
4.12423	19.8698
4.10464	19.8696
4.08523	19.8715
4.066	19.8449
4.04696	19.8061
4.02809	19.7768
4.0094	19.7353
3.99088	19.705
3.97253	19.6997
3.95435	19.7185
3.93634	19.7316
3.91848	19.7678
3.90079	19.8112
3.88326	19.8408
3.86589	19.8518
3.84867	19.8786
3.8316	19.8935
3.81468	19.8996
3.79791	19.8923
3.78129	19.8417
3.76482	19.7617
3.74848	19.6616
3.73229	19.5202
3.71624	19.4499
3.70032	19.4355
3.68454	19.4653
3.6689	19.4885
3.65338	19.5461
3.638	19.6086
3.62275	19.6633
3.60762	19.7294
3.59262	19.7502
3.57775	19.7468
3.56299	19.7304
3.54836	19.6752
3.53385	19.6372
3.51945	19.5563
3.50517	19.4628
3.49101	19.4323
3.47696	19.4255
3.46303	19.4282
3.4492	19.4011
3.43549	19.3811
3.42188	19.3173
3.40838	19.2897
3.39499	19.3312
3.38171	19.2976
3.36852	19.2609
3.35544	19.2221
3.34246	19.1804
3.32958	19.1237
3.3168	19.08
3.30411	19.0266
3.29153	18.9665
3.27903	18.9318
3.26664	18.8581
3.25433	18.8107
3.24212	18.7688
3.23	18.6987
3.21797	18.6152
3.20603	18.569
3.19418	18.4714
3.18241	18.4067
3.17074	18.3315
3.15914	18.2448
3.14763	18.1794
3.13621	18.0617
3.12487	17.9697
3.11361	17.9018
3.10243	17.8361
3.09133	17.7897
3.0803	17.7509
3.06936	17.7053
3.0585	17.6257
3.04771	17.6064
3.037	17.5532
3.02636	17.5
3.0158	17.4462
3.00531	17.3894
2.99489	17.3378
2.98454	17.246
2.97427	17.1313
2.96407	17.0236
2.95393	16.9108
2.94387	16.79
2.93387	16.5918
2.92394	16.3718
2.91408	16.1386
2.90429	15.978
2.89456	15.9206
2.88489	15.8957
2.87529	15.9145
2.86576	15.9506
2.85628	15.8986
2.84687	15.6611
2.83752	15.3003
2.82823	14.9582
2.81901	14.3105
2.80984	12.7739
2.80073	10.3257
2.79168	7.6157
2.78269	5.782
2.77376	4.9258
2.76488	4.2056
2.75606	3.7163
2.7473	3.751
2.73859	3.8328
2.72994	4.1948
2.72134	6.0566
2.7128	11.2431
2.70431	14.7168
2.69587	15.8169
2.68748	16.3203
2.67915	16.5849
2.67087	16.7924
2.66264	17.104
2.65446	17.3295
2.64633	17.4677
2.63825	17.5544
2.63021	17.5283
2.62223	17.5654
2.6143	17.5659
2.60641	17.5185
2.59857	17.6413
2.59078	17.7216
2.58304	17.7334
2.57534	17.6897
2.56768	17.7504
2.56008	17.8347
2.55251	17.8652
2.54499	17.9262
2.53752	17.9245
2.53009	17.875
2.5227	17.7602
2.51536	17.6413
2.50806	17.5556
2.5008	17.4177
2.49358	17.3671
2.4864	17.2924
2.47927	17.2436
2.47218	17.1035
2.46512	16.9741
2.45811	16.8276
2.45114	16.6948
2.4442	16.5888
2.43731	16.5249
2.43045	16.592
2.42363	16.7236
2.41685	16.873
2.41011	17.0473
2.40341	17.0949
2.39674	17.1174
2.39011	17.0588
2.38352	17.0334
2.37696	17.0454
2.37044	17.0795
2.36395	17.0549
2.35751	16.9721
2.35109	16.8967
2.34471	16.8645
2.33836	16.9052
2.33205	17.0637
2.32578	17.2851
2.31953	17.5588
2.31332	17.7414
2.30714	17.9213
2.301	18.0097
2.29489	18.0966
2.28881	18.1752
2.28276	18.1543
2.27675	18.2121
2.27076	18.1936
2.26481	18.1621
2.25889	18.1203
2.253	18.0986
2.24714	17.9951
2.24131	17.9006
2.23551	17.7675
2.22974	17.5939
2.224	17.5
2.21829	17.3154
2.21261	16.853
2.20696	16.2275
2.20134	15.792
2.19574	15.7382
2.19018	16.2031
2.18464	16.8086
2.17913	17.4155
2.17365	17.9003
2.16819	18.165
2.16277	18.3159
2.15737	18.4335
2.15199	18.4858
2.14665	18.4868
2.14133	18.6196
2.13603	18.6699
2.13077	18.6591
2.12552	18.7138
2.12031	18.7456
2.11512	18.7778
2.10995	18.8056
2.10481	18.8867
2.0997	18.9882
2.09461	19.1181
2.08954	19.1958
2.0845	19.1401
2.07948	19.1918
