Name: Pectolite NaCa2Si308(OH)
Type: Mineral
Class: Silicates
Subclass: Inosilicates (Chain Silicates); (Pyrexenoid Group)
Particle Size: Fine  (Less than 2 Micrometers)
Sample No.: pectol.2
Owner: JHU
Wavelength Range: IR
Origin: Thedford, Ontario, Canada via the Smithsonian (sample no.
Description: Sample consisted of a small (1 mm x 1 mm x 1 cm ) and
Measurement: Transmission
X Units: Wavelength (micrometers)
Y Units: Transmittance (percent)
wavelength	value
25.0442	51.1639
24.3388	32.4257
23.6719	30.3593
23.0407	21.3798
22.4422	9.2929
21.8741	12.0908
21.334	21.7128
20.8199	27.1718
20.33	32.5429
19.8627	45.1078
19.4163	55.9217
18.9896	43.9628
18.5812	46.1722
18.19	58.7206
17.815	64.8319
17.4551	66.7645
17.1094	66.6473
16.7772	66.4515
16.4576	64.5545
16.15	61.3617
15.8537	53.2377
15.568	34.3256
15.2925	44.9926
15.0265	39.9931
14.7697	42.8915
14.5214	59.2953
14.2814	70.3948
14.0492	71.3216
13.8244	67.2257
13.6067	64.0916
13.3957	61.2218
13.1912	57.9806
12.9929	55.0216
12.8004	52.7381
12.6135	51.0829
12.432	49.6854
12.2557	48.3966
12.0843	47.424
11.9176	46.2723
11.7555	44.6837
11.5977	41.2392
11.444	33.257
11.2944	19.9824
11.1487	8.7212
11.0067	8.5688
10.8682	9.2033
10.7332	12.0481
10.6015	28.0307
10.473	34.3546
10.3476	27.3068
10.2251	24.0432
10.1056	15.5166
9.98873	12.4919
9.87458	15.2827
9.763	12.1831
9.65392	9.4304
9.54724	8.8242
9.44291	9.2768
9.34082	12.7187
9.24091	19.8713
9.14312	29.1586
9.04739	37.956
8.95363	45.3256
8.8618	50.5665
8.77183	54.5782
8.68368	58.2108
8.59727	61.5929
8.51257	64.305
8.42951	66.324
8.34807	67.8763
8.26819	69.1746
8.18981	70.2015
8.11292	71.0052
8.03745	71.6483
7.96337	72.285
7.89064	72.6263
7.81924	72.6639
7.74911	72.7068
7.68023	72.669
7.61256	72.7977
7.54608	72.722
7.48074	72.452
7.41653	71.6505
7.35341	70.1856
7.29136	67.0189
7.23034	61.6693
7.17033	57.5487
7.11132	60.1788
7.05327	65.0855
6.99616	68.6024
6.93996	70.6507
6.88467	71.8519
6.83024	72.7249
6.77667	73.3211
6.72393	73.9241
6.67201	74.5643
6.62089	75.1141
6.57054	75.6761
6.52095	75.9651
6.4721	76.0125
6.42398	75.9754
6.37657	76.2435
6.32986	76.3162
6.28382	76.3831
6.23845	76.3621
6.19373	76.1941
6.14965	76.2039
6.10619	76.545
6.06334	76.9539
6.02109	77.6023
5.97942	78.1473
5.93832	78.5809
5.89778	78.8147
5.8578	79.0179
5.81835	79.2493
5.77943	79.545
5.74103	79.9095
5.70314	80.1648
5.66574	80.4388
5.62883	80.7654
5.5924	81.0696
5.55644	81.303
5.52093	81.4964
5.48588	81.7771
5.45127	82.1267
5.41709	82.4119
5.38334	82.6341
5.35	82.888
5.31708	83.034
5.28456	83.2093
5.25243	83.3753
5.2207	83.5379
5.18934	83.8147
5.15836	84.1355
5.12775	84.4268
5.09749	84.6492
5.0676	84.8865
5.03805	85.1458
5.00884	85.2471
4.97998	85.4634
4.95144	85.7019
4.92322	85.9497
4.89533	86.2022
4.86775	86.4729
4.84048	86.6807
4.81351	86.9221
4.78684	87.1697
4.76047	87.2547
4.73439	87.3711
4.70859	87.4597
4.68306	87.5447
4.65782	87.6426
4.63284	87.68
4.60814	87.8035
4.58369	87.7334
4.5595	87.7078
4.53557	87.6726
4.51188	87.6492
4.48845	87.6785
4.46525	87.5654
4.44229	87.5249
4.41957	87.5271
4.39708	87.4324
4.37481	87.4824
4.35277	87.4451
4.33096	87.5344
4.30935	87.5393
4.28797	87.625
4.26679	87.7403
4.24583	87.8836
4.22506	87.9749
4.2045	88.0994
4.18414	88.2976
4.16398	88.4844
4.14401	88.6038
4.12423	88.8465
4.10464	89.086
4.08523	89.2761
4.066	89.4168
4.04696	89.6944
4.02809	89.8943
4.0094	90.0733
3.99088	90.2493
3.97253	90.4326
3.95435	90.6602
3.93634	90.8665
3.91848	91.0369
3.90079	91.2639
3.88326	91.4041
3.86589	91.5762
3.84867	91.7424
3.8316	91.8972
3.81468	92.1633
3.79791	92.2197
3.78129	92.3611
3.76482	92.4075
3.74848	92.4512
3.73229	92.5974
3.71624	92.4668
3.70032	92.4768
3.68454	92.3992
3.6689	92.4104
3.65338	92.3933
3.638	92.3584
3.62275	92.1253
3.60762	92.0505
3.59262	91.9629
3.57775	91.7639
3.56299	91.6846
3.54836	91.5486
3.53385	91.5789
3.51945	91.6101
3.50517	91.54
3.49101	91.7449
3.47696	91.9207
3.46303	92.1387
3.4492	92.3027
3.43549	92.4014
3.42188	92.3838
3.40838	92.4988
3.39499	92.8262
3.38171	92.8904
3.36852	93.0896
3.35544	93.199
3.34246	93.3096
3.32958	93.5938
3.3168	93.5391
3.30411	93.7136
3.29153	93.8352
3.27903	93.8586
3.26664	93.8801
3.25433	94.0691
3.24212	94.0901
3.23	94.1448
3.21797	94.2644
3.20603	94.28
3.19418	94.3904
3.18241	94.4382
3.17074	94.3943
3.15914	94.2981
3.14763	94.407
3.13621	94.3362
3.12487	94.3171
3.11361	94.3245
3.10243	94.2107
3.09133	94.1541
3.0803	94.1389
3.06936	94.0779
3.0585	93.9983
3.04771	94.0398
3.037	93.9519
3.02636	93.7966
3.0158	93.4695
3.00531	93.2112
2.99489	93.0022
2.98454	92.7127
2.97427	92.0994
2.96407	91.6917
2.95393	91.1287
2.94387	90.8557
2.93387	90.74
2.92394	90.531
2.91408	90.4129
2.90429	90.5037
2.89456	90.8884
2.88489	91.1912
2.87529	91.4553
2.86576	91.7107
2.85628	92.1585
2.84687	92.4104
2.83752	92.7932
2.82823	93.0393
2.81901	93.5217
2.80984	93.9412
2.80073	94.2542
2.79168	94.6956
2.78269	95.1506
2.77376	95.5491
2.76488	95.9553
2.75606	96.5388
2.7473	96.7498
2.73859	97.1462
2.72994	97.1306
2.72134	97.3083
2.7128	97.1306
2.70431	97.2712
2.69587	97.385
2.68748	97.5491
2.67915	97.4861
2.67087	97.678
2.66264	97.4656
2.65446	97.4089
2.64633	97.3982
2.63825	97.4255
2.63021	97.5632
2.62223	97.4587
2.6143	97.571
2.60641	97.4665
2.59857	97.4226
2.59078	97.4314
2.58304	97.5662
2.57534	97.3914
2.56768	97.3083
2.56008	97.6365
2.55251	97.2849
2.54499	97.4714
2.53752	97.3835
2.53009	97.4451
2.5227	97.1931
2.51536	97.3357
2.50806	97.4783
2.5008	97.2742
2.49358	97.1726
2.4864	97.3103
2.47927	97.1804
2.47218	97.4255
2.46512	97.1999
2.45811	97.1521
2.45114	97.1755
2.4442	96.9138
2.43731	97.1765
2.43045	97.0349
2.42363	97.1804
2.41685	96.8865
2.41011	97.0974
2.40341	97.1296
2.39674	96.8328
2.39011	96.7849
2.38352	96.654
2.37696	96.6638
2.37044	96.99
2.36395	96.9333
2.35751	96.8367
2.35109	97.0828
2.34471	96.6912
2.33836	96.7117
2.33205	96.8601
2.32578	96.7732
2.31953	96.6804
2.31332	96.7693
2.30714	96.7312
2.301	96.7664
2.29489	96.699
2.28881	96.4998
2.28276	96.4734
2.27675	96.5515
2.27076	96.6208
2.26481	96.8669
2.25889	96.3923
2.253	96.4646
2.24714	96.4451
2.24131	96.5388
2.23551	96.4314
2.22974	96.5115
2.224	96.3806
2.21829	96.3435
2.21261	96.4861
2.20696	96.1833
2.20134	96.3552
2.19574	96.281
2.19018	96.4158
2.18464	96.3279
2.17913	96.0974
2.17365	96.2166
2.16819	96.2498
2.16277	96.031
2.15737	96.2869
2.15199	95.8259
2.14665	96.0857
2.14133	95.9724
2.13603	96.2341
2.13077	95.8083
2.12552	96.0857
2.12031	95.9919
2.11512	95.8865
2.10995	95.9919
2.10481	95.7537
2.0997	96.0818
2.09461	95.9763
2.08954	95.863
2.0845	96.406
2.07948	95.949
