Name: Vesuvianite Ca10Mg2Al4(SiO4)5(Si2O7)2(OH)4
Type: Mineral
Class: Silicates
Subclass: Sorosilicates
Particle Size: Fine  (less than 2 Micrometers)
Sample No.: vesuvian.1
Owner: JHU
Wavelength Range: IR
Origin: Quebec, Canada via Norma Vergo
Description: The sample was a massive piece of striated, green,
Measurement: Transmission
X Units: Wavelength (micrometers)
Y Units: Transmittance (percent)
wavelength	value
25.044	60.7889
24.339	51.1483
23.672	51.9178
23.041	41.83
22.442	39.6718
21.874	47.4374
21.334	44.7304
20.82	39.6679
20.33	35.6562
19.863	41.3642
19.416	49.618
18.99	53.992
18.581	57.8719
18.19	62.8651
17.815	65.5448
17.455	57.9706
17.109	60.9002
16.777	62.2215
16.458	59.1688
16.15	63.1483
15.854	64.9178
15.568	68.4422
15.292	74.6912
15.027	78.0418
14.77	83.1521
14.521	85.5506
14.281	86.5882
14.049	85.8968
13.824	87.5315
13.607	87.5818
13.396	86.6448
13.191	85.2205
12.993	82.366
12.8	75.1468
12.614	65.867
12.432	61.6522
12.256	61.4652
12.084	58.432
11.918	51.8675
11.755	45.6376
11.598	42.3871
11.444	41.2328
11.294	36.6933
11.149	34.4496
11.007	34.2343
10.868	31.1664
10.733	35.6806
10.602	36.7045
10.473	35.5468
10.348	33.4169
10.225	33.6991
10.106	40.0653
9.989	41.4765
9.875	31.9926
9.763	30.9638
9.654	40.9828
9.547	57.9647
9.443	68.6258
9.341	73.6487
9.241	76.2723
9.143	78.4441
9.047	81.325
8.954	84.0276
8.862	86.3972
8.772	88.1502
8.684	89.7639
8.597	91.2459
8.513	92.7246
8.43	94.199
8.348	95.4744
8.268	96.5769
8.19	97.418
8.113	98.0176
8.037	98.4148
7.963	98.8118
7.891	99.1433
7.819	99.4961
7.749	99.7497
7.68	99.9621
7.613	100.109
7.546	100.324
7.481	100.435
7.417	100.501
7.353	100.414
7.291	100.33
7.23	100.282
7.17	100.065
7.111	100.1
7.053	99.9343
6.996	99.8962
6.94	100.041
6.885	100.234
6.83	100.472
6.777	100.647
6.724	100.793
6.672	101.011
6.621	101.155
6.571	101.077
6.521	101.241
6.472	101.127
6.424	100.886
6.377	100.855
6.33	100.648
6.284	100.484
6.238	100.397
6.194	100.277
6.15	100.695
6.106	100.55
6.063	100.985
6.021	101.825
5.979	101.949
5.938	101.88
5.898	102.122
5.858	102.427
5.818	102.295
5.779	102.39
5.741	102.167
5.703	101.938
5.666	101.756
5.629	101.546
5.592	101.362
5.556	101.23
5.521	101.327
5.486	101.508
5.451	101.636
5.417	101.595
5.383	101.648
5.35	101.58
5.317	101.613
5.285	101.628
5.252	101.687
5.221	101.717
5.189	101.775
5.158	101.77
5.128	101.771
5.097	101.748
5.068	101.744
5.038	101.73
5.009	101.719
4.98	101.712
4.951	101.701
4.923	101.676
4.895	101.652
4.868	101.615
4.84	101.596
4.814	101.586
4.787	101.564
4.76	101.56
4.734	101.516
4.709	101.48
4.683	101.376
4.658	101.341
4.633	101.344
4.608	101.332
4.584	101.314
4.56	101.282
4.536	101.2
4.512	101.169
4.488	101.106
4.465	101.05
4.442	101.035
4.42	100.974
4.397	100.934
4.375	100.873
4.353	100.829
4.331	100.796
4.309	100.758
4.288	100.746
4.267	100.693
4.246	100.668
4.225	100.615
4.205	100.51
4.184	100.465
4.164	100.412
4.144	100.358
4.124	100.32
4.105	100.277
4.085	100.223
4.066	100.164
4.047	100.134
4.028	100.057
4.009	99.9968
3.991	99.9553
3.973	99.9075
3.954	99.822
3.936	99.759
3.918	99.697
3.901	99.613
3.883	99.5569
3.866	99.4104
3.849	99.3772
3.832	99.3186
3.815	99.2405
3.798	99.1355
3.781	99.073
3.765	99.0046
3.748	98.9045
3.732	98.8088
3.716	98.7205
3.7	98.6765
3.685	98.5515
3.669	98.4397
3.653	98.3757
3.638	98.2927
3.623	98.1892
3.608	98.0666
3.593	97.9499
3.578	97.8303
3.563	97.7322
3.548	97.6072
3.534	97.5095
3.519	97.3874
3.505	97.1775
3.491	97.0549
3.477	96.9314
3.463	96.801
3.449	96.6746
3.435	96.5408
3.422	96.3479
3.408	96.199
3.395	96.1355
3.382	96.0203
3.369	95.8484
3.355	95.6882
3.342	95.5256
3.33	95.3025
3.317	95.0349
3.304	94.7307
3.292	94.4885
3.279	94.1824
3.267	93.9026
3.254	93.5647
3.242	93.1721
3.23	92.5916
3.218	91.7712
3.206	90.9002
3.194	90.1194
3.182	89.7542
3.171	89.7986
3.159	90.1057
3.148	90.5798
3.136	91.053
3.125	91.301
3.114	91.4158
3.102	91.3787
3.091	91.3474
3.08	91.3455
3.069	91.4714
3.058	91.6033
3.048	91.6697
3.037	91.6882
3.026	91.5066
3.016	91.2713
3.005	90.9744
2.995	90.6062
2.985	90.2224
2.974	89.6814
2.964	89.0965
2.954	88.6658
2.944	88.3797
2.934	88.2791
2.924	88.2156
2.914	88.2156
2.904	88.2107
2.895	88.3064
2.885	88.4656
2.875	88.6013
2.866	88.739
2.856	88.8054
2.847	88.8328
2.838	89.0076
2.828	89.615
2.819	90.2439
2.81	90.742
2.801	91.3474
2.792	92.2507
2.783	92.6257
2.774	92.4275
2.765	90.8435
2.756	88.2947
2.747	89.0711
2.739	93.0349
2.73	95.1648
2.721	93.74
2.713	96.5945
2.704	97.0603
2.696	96.8083
2.687	96.7068
2.679	96.4421
2.671	96.1755
2.663	96.238
2.654	96.0867
2.646	95.9773
2.638	95.9138
2.63	95.575
2.622	95.5945
2.614	95.4617
2.606	95.282
2.599	95.3445
2.591	95.1912
2.583	94.906
2.575	94.9451
2.568	94.9031
2.56	94.7459
2.553	94.7937
2.545	94.6052
2.538	94.5779
2.53	94.449
2.523	94.4294
2.515	94.3025
2.508	94.2341
2.501	94.074
2.494	93.9822
2.486	93.9431
2.479	93.8513
2.472	93.8259
2.465	93.74
2.458	93.5857
2.451	93.5896
2.444	93.4627
2.437	93.4959
2.43	93.4275
2.424	93.2908
2.417	93.2419
2.41	93.0935
2.403	92.9802
2.397	92.9841
2.39	93.0037
2.384	92.9861
2.377	92.8982
2.37	92.906
2.364	92.8748
2.358	92.7986
2.351	92.7107
2.345	92.6638
2.338	92.6834
2.332	92.6287
2.326	92.6013
2.32	92.4841
2.313	92.4548
2.307	92.4529
2.301	92.533
2.295	92.5779
2.289	92.5037
2.283	92.488
2.277	92.4939
2.271	92.2986
2.265	92.3455
2.259	92.2107
2.253	92.322
2.247	92.3298
2.241	92.2068
2.236	92.2263
2.23	92.408
2.224	92.5252
2.218	92.4236
2.213	92.2966
2.207	92.3064
2.201	92.281
2.196	92.283
2.19	92.2576
2.185	92.2517
2.179	92.1716
2.174	92.2517
2.168	92.3064
2.163	92.3904
2.157	92.242
2.152	92.0349
2.147	92.1755
2.141	92.2459
2.136	92.281
2.131	92.2732
2.126	92.0545
2.12	92.1834
2.115	92.3982
2.11	92.2302
2.105	92.1521
2.1	92.0701
2.095	92.242
2.09	92.1716
2.085	92.0154
2.079	92.1677
