Name: Olivine (Fo66) (Fe+2,Mg)2SiO4
Type: Mineral
Class: Silicates
Subclass: Nesosilicates (Isolated tetrahedra); (Olivine Group)
Particle Size: 0-60 micrometers.  (Packed powder simulates coarse.)
Sample No.: olivine.7
Owner: JHU
Wavelength Range: IR
Origin: Kiglapait Intrusion, Labrador via Trude King #KI3054
Description: Initially, the specimen was contaminated with pyroxene,
Measurement: Bidirectional reflectance
X Units: Wavelength (micrometers)
Y Units: Reflectance (percent)
wavelength	value
25.0442	7.5002
24.3388	7.9375
23.6719	6.8843
23.0407	5.4543
22.4422	4.1658
21.8741	4.23
21.334	4.0095
20.8199	4.7202
20.33	5.7051
19.8627	5.5991
19.4163	6.2578
18.9896	6.7331
18.5812	7.1687
18.19	6.9255
17.815	5.258
17.4551	3.7175
17.1094	3.199
16.7772	3.4819
16.4576	3.8025
16.15	4.135
15.8537	3.7192
15.568	2.7969
15.2925	2.4773
15.0265	2.5701
14.7697	2.7812
14.5214	3.0195
14.2814	3.2097
14.0492	3.3996
13.8244	3.5129
13.6067	3.6494
13.3957	3.7317
13.1912	3.873
12.9929	3.8572
12.8004	3.8203
12.6135	3.7612
12.432	3.6804
12.2557	3.6789
12.0843	3.7241
11.9176	3.5906
11.7555	3.8337
11.5977	4.4219
11.444	5.4033
11.2944	6.2126
11.1487	6.7112
11.0067	7.1196
10.8682	7.6413
10.7332	8.1096
10.6015	7.737
10.473	5.6687
10.3476	6.2471
10.2251	6.7309
10.1056	6.1943
9.98873	5.9492
9.87458	5.6985
9.763	5.6301
9.65392	5.7363
9.54724	5.9397
9.44291	5.8
9.34082	4.9021
9.24091	3.7527
9.14312	2.9421
9.04739	2.6228
8.95363	2.613
8.8618	2.9788
8.77183	3.3205
8.68368	3.5149
8.59727	3.6475
8.51257	3.8379
8.42951	4.021
8.34807	4.2007
8.26819	4.3843
8.18981	4.6059
8.11292	4.7959
8.03745	4.9197
7.96337	4.977
7.89064	4.9973
7.81924	5.0264
7.74911	5.0466
7.68023	5.0058
7.61256	4.9968
7.54608	5.0635
7.48074	5.155
7.41653	5.2446
7.35341	5.2915
7.29136	5.3096
7.23034	5.2888
7.17033	5.1597
7.11132	4.9897
7.05327	4.9204
6.99616	4.8889
6.93996	4.8672
6.88467	4.863
6.83024	4.9082
6.77667	4.9958
6.72393	5.0559
6.67201	5.1123
6.62089	5.2275
6.57054	5.4101
6.52095	5.5876
6.4721	5.7463
6.42398	5.8381
6.37657	5.8901
6.32986	5.9072
6.28382	5.8948
6.23845	5.863
6.19373	5.8137
6.14965	5.7397
6.10619	5.541
6.06334	5.2034
6.02109	5.0449
5.97942	5.1184
5.93832	5.1682
5.89778	5.2104
5.8578	5.2668
5.81835	5.3144
5.77943	5.3022
5.74103	5.1296
5.70314	4.9001
5.66574	4.7754
5.62883	4.8721
5.5924	5.052
5.55644	5.135
5.52093	5.1401
5.48588	5.1545
5.45127	5.2663
5.41709	5.3989
5.38334	5.4927
5.35	5.5481
5.31708	5.5835
5.28456	5.6243
5.25243	5.6994
5.2207	5.7898
5.18934	5.8828
5.15836	5.9592
5.12775	6.0156
5.09749	6.0583
5.0676	6.0747
5.03805	6.073
5.00884	6.0974
4.97998	6.1987
4.95144	6.3772
4.92322	6.5588
4.89533	6.7021
4.86775	6.7995
4.84048	6.8689
4.81351	6.9238
4.78684	6.9802
4.76047	7.0276
4.73439	7.0664
4.70859	7.1025
4.68306	7.1435
4.65782	7.1875
4.63284	7.2353
4.60814	7.2707
4.58369	7.3196
4.5595	7.3542
4.53557	7.3982
4.51188	7.4441
4.48845	7.4848
4.46525	7.5202
4.44229	7.5637
4.41957	7.6037
4.39708	7.6474
4.37481	7.6955
4.35277	7.7358
4.33096	7.7825
4.30935	7.8074
4.28797	7.8635
4.26679	7.9018
4.24583	7.9563
4.22506	8.0119
4.2045	8.0334
4.18414	8.0764
4.16398	8.112
4.14401	8.1528
4.12423	8.1865
4.10464	8.2099
4.08523	8.2451
4.066	8.2724
4.04696	8.2851
4.02809	8.2947
4.0094	8.2903
3.99088	8.2612
3.97253	8.2495
3.95435	8.2527
3.93634	8.3066
3.91848	8.3618
3.90079	8.4314
3.88326	8.4636
3.86589	8.5007
3.84867	8.5342
3.8316	8.5617
3.81468	8.5884
3.79791	8.6155
3.78129	8.6655
3.76482	8.7114
3.74848	8.7522
3.73229	8.7854
3.71624	8.801
3.70032	8.811
3.68454	8.8301
3.6689	8.8491
3.65338	8.8662
3.638	8.8818
3.62275	8.8987
3.60762	8.9167
3.59262	8.9055
3.57775	8.9153
3.56299	8.905
3.54836	8.8791
3.53385	8.8594
3.51945	8.7868
3.50517	8.5588
3.49101	8.6037
3.47696	8.6389
3.46303	8.6108
3.4492	8.5537
3.43549	8.4724
3.42188	8.2656
3.40838	8.3281
3.39499	8.5044
3.38171	8.5351
3.36852	8.5857
3.35544	8.6772
3.34246	8.7136
3.32958	8.7268
3.3168	8.7209
3.30411	8.7209
3.29153	8.7307
3.27903	8.7295
3.26664	8.7287
3.25433	8.7102
3.24212	8.6943
3.23	8.6633
3.21797	8.647
3.20603	8.625
3.19418	8.5937
3.18241	8.5527
3.17074	8.5161
3.15914	8.5017
3.14763	8.4416
3.13621	8.4194
3.12487	8.3828
3.11361	8.3533
3.10243	8.3254
3.09133	8.2886
3.0803	8.2539
3.06936	8.219
3.0585	8.1982
3.04771	8.1589
3.037	8.1399
3.02636	8.0979
3.0158	8.0661
3.00531	8.0298
2.99489	8.0051
2.98454	7.9636
2.97427	7.9321
2.96407	7.9265
2.95393	7.8916
2.94387	7.8635
2.93387	7.8489
2.92394	7.8235
2.91408	7.8032
2.90429	7.7895
2.89456	7.7646
2.88489	7.7419
2.87529	7.7148
2.86576	7.7051
2.85628	7.6953
2.84687	7.6672
2.83752	7.6233
2.82823	7.5869
2.81901	7.5805
2.80984	7.563
2.80073	7.5622
2.79168	7.5945
2.78269	7.6291
2.77376	7.6472
2.76488	7.6604
2.75606	7.6755
2.7473	7.6999
2.73859	7.7788
2.72994	7.6794
2.72134	7.6929
2.7128	8.1811
2.70431	8.666
2.69587	9.0547
2.68748	9.251
2.67915	9.3698
2.67087	9.3877
2.66264	9.3735
2.65446	9.3664
2.64633	9.3733
2.63825	9.3738
2.63021	9.3454
2.62223	9.3442
2.6143	9.3408
2.60641	9.3257
2.59857	9.3147
2.59078	9.3198
2.58304	9.3105
2.57534	9.299
2.56768	9.2593
2.56008	9.2497
2.55251	9.2229
2.54499	9.2068
2.53752	9.2068
2.53009	9.1982
2.5227	9.1933
2.51536	9.1611
2.50806	9.157
2.5008	9.1164
2.49358	9.1133
2.4864	9.1284
2.47927	9.1252
2.47218	9.1152
2.46512	9.1067
2.45811	9.0801
2.45114	9.0759
2.4442	9.0654
2.43731	9.0303
2.43045	9.011
2.42363	9.0205
2.41685	9.0124
2.41011	9.0058
2.40341	8.9975
2.39674	8.9707
2.39011	8.9695
2.38352	8.9348
2.37696	8.9297
2.37044	8.9258
2.36395	8.9004
2.35751	8.9204
2.35109	8.8999
2.34471	8.9043
2.33836	8.8894
2.33205	8.842
2.32578	8.8757
2.31953	8.8337
2.31332	8.8542
2.30714	8.8484
2.301	8.8413
2.29489	8.824
2.28881	8.8445
2.28276	8.8261
2.27675	8.8537
2.27076	8.8659
2.26481	8.8471
2.25889	8.8633
2.253	8.8413
2.24714	8.8535
2.24131	8.8462
2.23551	8.8486
2.22974	8.8323
2.224	8.843
2.21829	8.8247
2.21261	8.8137
2.20696	8.8247
2.20134	8.8186
2.19574	8.8142
2.19018	8.8117
2.18464	8.822
2.17913	8.8218
2.17365	8.811
2.16819	8.8432
2.16277	8.8323
2.15737	8.8098
2.15199	8.8193
2.14665	8.7846
2.14133	8.8388
2.13603	8.8359
2.13077	8.8218
2.12552	8.8506
2.12031	8.8794
2.11512	8.8371
2.10995	8.8269
2.10481	8.8594
2.0997	8.8672
2.09461	8.8659
2.08954	8.8652
2.0845	8.8955
2.07948	8.9297
