Name: Shale (Arenaceous)
Type: Rocks
Class: Sedimentary
Subclass: Shale
Particle Size: 0 - 75 Micrometers
Sample No.: shale.1
Owner: JHU
Wavelength Range: All
Origin: Sample No. 387,  The Hunt and Salisbury Collection at the U.S.
Description: A well-sorted sample, consisting of medium fine-grained
Measurement: Directional (10 Degree) Hemispherical Reflectance
X Units: Wavelength (micrometers)
Y Units: Reflectance (percent)
wavelength	value
14.983	2.0186
14.645	1.4917
14.321	0.9714
14.011	2.0688
13.715	2.9585
13.43	2.5953
13.158	2.3693
12.896	1.9821
12.644	1.4929
12.402	1.104
12.169	2.4589
11.945	3.867
11.729	4.993
11.52	4.8569
11.319	4.0981
11.125	3.0634
10.937	1.8924
10.755	1.899
10.58	2.0075
10.41	2.5337
10.245	2.5872
10.086	2.4236
9.931	2.3743
9.781	2.2933
9.636	2.6777
9.495	2.942
9.358	3.3628
9.225	3.3218
9.095	2.7857
8.969	2.4188
8.847	2.9465
8.727	2.8198
8.612	2.3307
8.499	2.767
8.389	2.9012
8.281	3.3176
8.177	4.0806
8.075	3.4068
7.976	2.5389
7.879	1.7584
7.784	1.5223
7.692	1.541
7.601	1.5744
7.513	1.7503
7.427	1.9502
7.343	2.2201
7.261	2.6599
7.18	3.1785
7.102	3.623
7.025	3.9889
6.949	4.6899
6.875	5.2734
6.803	5.7364
6.733	5.9621
6.663	6.6036
6.596	6.9046
6.529	7.31
6.464	8.9682
6.4	8.8335
6.338	7.5386
6.276	6.0308
6.216	4.9959
6.157	5.1702
6.099	6.0173
6.042	6.9816
5.986	7.8635
5.931	8.2462
5.878	10.251
5.825	12.235
5.773	13.953
5.722	15.252
5.672	14.887
5.623	12.662
5.574	11.978
5.527	12.497
5.48	13.192
5.434	13.894
5.389	10.861
5.345	8.973
5.301	9.8402
5.258	12.164
5.215	15.589
5.174	16.298
5.133	16.42
5.093	16.861
5.053	16.875
5.014	17.383
4.975	19.627
4.937	23.243
4.9	27.85
4.863	32.766
4.827	34.992
4.791	36.576
4.756	37.624
4.721	38.035
4.687	37.442
4.654	38.611
4.62	40.373
4.588	41.503
4.556	41.944
4.524	41.305
4.492	39.947
4.461	40.026
4.431	41.207
4.401	42.338
4.371	43.644
4.342	44.597
4.313	45.049
4.284	44.99
4.256	45.248
4.229	46.057
4.201	46.33
4.174	46.749
4.147	47.201
4.121	47.615
4.095	48.027
4.069	48.35
4.044	48.524
4.019	48.616
3.994	48.666
3.97	48.801
3.945	48.887
3.921	48.871
3.898	48.686
3.875	48.391
3.852	48.097
3.829	47.798
3.806	47.445
3.784	46.957
3.762	46.349
3.74	45.572
3.719	45.068
3.698	44.114
3.677	43.941
3.656	43.52
3.636	42.858
3.615	42.076
3.595	41.249
3.575	40.418
3.556	39.464
3.536	38.433
3.517	37.202
3.498	36.173
3.479	36.136
3.461	35.212
3.442	33.835
3.424	33.052
3.406	32.068
3.388	31.053
3.371	30.016
3.353	29.267
3.336	28.526
3.319	27.628
3.302	26.633
3.285	25.626
3.269	24.671
3.252	23.765
3.236	22.896
3.22	21.863
3.204	20.837
3.188	19.883
3.173	18.963
3.157	18.072
3.142	17.178
3.127	16.373
3.112	15.623
3.097	14.978
3.082	14.497
3.067	14.157
3.053	13.803
3.039	13.491
3.025	13.138
3.011	12.773
2.997	12.413
2.983	12.014
2.969	11.611
2.956	11.335
2.942	11.236
2.929	11.092
2.916	10.98
2.903	10.909
2.89	10.765
2.877	10.706
2.864	10.596
2.852	10.477
2.839	10.312
2.827	10.015
2.814	9.4137
2.802	8.4479
2.79	7.252
2.778	5.4982
2.766	3.1489
2.755	2.6995
2.743	2.7021
2.731	2.5434
2.72	3.1511
2.708	2.2938
2.697	4.0569
2.686	13.757
2.675	22.968
2.664	28.739
2.653	32.845
2.642	35.232
2.632	36.659
2.621	37.979
2.61	38.846
2.6	39.317
2.59	39.612
2.579	40.26
2.569	40.878
2.559	41.796
2.549	42.281
2.539	42.701
2.529	43.123
2.519	43.509
2.509	43.829
2.5	44.24
2.49	44.359
2.481	45.082
2.471	45.698
2.462	45.991
2.452	46.216
2.443	46.59
2.434	47.47
2.425	48.455
2.416	49.091
2.407	49.374
2.398	49.222
2.389	48.543
2.38	48.489
2.372	49.46
2.363	49.728
2.354	49.674
2.346	50.284
2.337	50.857
2.329	50.826
2.321	51.066
2.312	51.444
2.304	52.113
2.296	52.584
2.288	52.94
2.28	53.298
2.272	53.517
2.264	53.637
2.256	53.524
2.248	53.458
2.24	53.181
2.233	53.184
2.225	52.574
2.217	50.875
2.21	44.266
2.202	47.864
2.195	49.325
2.187	50.029
2.18	50.289
2.173	50.513
2.166	50.602
2.158	51.164
2.151	52.586
2.144	54.207
2.137	55.055
2.13	55.544
2.123	55.666
2.116	55.787
2.109	55.89
2.102	56.097
2.095	56.189
2.089	56.206
2.082	56.372
2.06	56.165
2.028	55.68
1.996	54.045
1.964	52.016
1.932	49.6
1.9	50.811
1.868	53.63
1.836	55.607
1.804	55.357
1.772	55.263
1.74	54.64
1.708	54.729
1.676	54.372
1.644	53.631
1.612	53.809
1.58	52.974
1.548	52.752
1.516	52.156
1.484	50.973
1.452	50.283
1.42	48.89
1.388	47.448
1.356	49.88
1.324	48.551
1.292	48.121
1.26	48.498
1.228	48.229
1.196	47.099
1.164	45.955
1.132	45.81
1.1	44.972
1.068	44.484
1.036	43.141
1.004	42.638
0.972	41.878
0.94	41.019
0.908	40.073
0.876	39.408
0.844	38.565
0.812	37.809
0.795	36.826
0.787	36.7
0.779	36.377
0.771	35.767
0.763	35.474
0.755	35.281
0.747	34.952
0.739	34.598
0.731	34.272
0.723	33.827
0.715	33.495
0.707	33.046
0.699	33.439
0.691	32.853
0.683	32.948
0.675	32.045
0.667	32.059
0.659	31.695
0.651	31.301
0.643	30.789
0.635	30.486
0.627	30.17
0.619	29.91
0.611	29.361
0.603	28.92
0.595	28.993
0.587	28.805
0.579	28.448
0.571	28.128
0.563	27.418
0.555	26.983
0.547	26.598
0.539	26.303
0.531	26.203
0.523	25.562
0.515	25.144
0.507	24.752
0.499	24.326
0.491	24.04
0.483	23.844
0.475	23.2
0.467	23.001
0.459	22.752
0.451	22.055
0.443	21.923
0.435	21.425
0.427	21.339
0.419	20.737
0.411	20.253
0.403	19.845
