Name: Cordierite Mg2Al4Si5O18
Type: Mineral
Class: Silicates
Subclass: Cyclosilicates (Ring Silicates)
Particle Size: Solid (fracture surface)
Sample No.: cordier.2
Owner: JHU
Wavelength Range: IR
Origin: Sample from Orijarvi, Finland via the Smithsonian  (sample
Description: The sample consists of three pieces, each about 2 cm x 4
Measurement: Bidirectional reflectance
X Units: Wavelength (micrometers)
Y Units: Reflectance (percent)
wavelength	value
25.0442	27.2304
24.3388	31.1269
23.6719	26.8447
23.0407	14.3266
22.4422	18.343
21.8741	19.5341
21.334	19.2451
20.8199	20.842
20.33	20.2426
19.8627	12.7624
19.4163	6.218
18.9896	6.2012
18.5812	7.459
18.19	8.8706
17.815	10.7973
17.4551	8.7929
17.1094	8.5581
16.7772	8.1738
16.4576	8.0534
16.15	8.5742
15.8537	8.5361
15.568	8.5022
15.2925	8.9389
15.0265	9.8271
14.7697	9.4878
14.5214	7.9253
14.2814	8.9004
14.0492	8.801
13.8244	9.6247
13.6067	10.5166
13.3957	11.8198
13.1912	13.8017
12.9929	15.7802
12.8004	13.0766
12.6135	9.3845
12.432	7.22
12.2557	7.832
12.0843	8.2163
11.9176	8.7026
11.7555	9.239
11.5977	9.748
11.444	10.3137
11.2944	11.0637
11.1487	12.3879
11.0067	14.4482
10.8682	13.7009
10.7332	14.3408
10.6015	20.3337
10.473	27.7726
10.3476	30.8608
10.2251	31.2116
10.1056	29.9816
9.98873	21.967
9.87458	13.875
9.763	15.8591
9.65392	13.7385
9.54724	12.8838
9.44291	13.623
9.34082	13.0266
9.24091	12.3716
9.14312	11.7959
9.04739	11.9255
8.95363	13.0283
8.8618	14.6433
8.77183	16.9973
8.68368	13.8625
8.59727	17.0737
8.51257	18.5607
8.42951	20.624
8.34807	20.9345
8.26819	21.3181
8.18981	22.2634
8.11292	22.3183
8.03745	17.434
7.96337	12.0193
7.89064	7.8147
7.81924	4.7705
7.74911	2.9243
7.68023	2.6609
7.61256	3.019
7.54608	3.4231
7.48074	3.7004
7.41653	4.0122
7.35341	4.2353
7.29136	4.435
7.23034	4.6133
7.17033	4.6721
7.11132	4.8772
7.05327	4.9087
6.99616	5.1067
6.93996	5.2912
6.88467	5.3608
6.83024	5.3638
6.77667	5.4902
6.72393	5.5068
6.67201	5.7029
6.62089	5.8467
6.57054	5.6938
6.52095	5.8022
6.4721	5.9719
6.42398	5.8398
6.37657	5.8835
6.32986	6.039
6.28382	6.0842
6.23845	6.0891
6.19373	6.0964
6.14965	6.1853
6.10619	6.2082
6.06334	6.279
6.02109	6.1477
5.97942	6.2031
5.93832	5.8557
5.89778	6.0019
5.8578	6.291
5.81835	6.2886
5.77943	6.3025
5.74103	6.3911
5.70314	6.4346
5.66574	6.4614
5.62883	6.4931
5.5924	6.5364
5.55644	6.4907
5.52093	6.5588
5.48588	6.5664
5.45127	6.6357
5.41709	6.655
5.38334	6.6492
5.35	6.5835
5.31708	6.6772
5.28456	6.7114
5.25243	6.7117
5.2207	6.719
5.18934	6.7666
5.15836	6.7671
5.12775	6.7986
5.09749	6.811
5.0676	6.8186
5.03805	6.8547
5.00884	6.8674
4.97998	6.8857
4.95144	6.9216
4.92322	6.9155
4.89533	6.9482
4.86775	6.9455
4.84048	6.9534
4.81351	6.9651
4.78684	6.97
4.76047	6.9795
4.73439	6.9949
4.70859	6.9958
4.68306	6.9944
4.65782	7.0112
4.63284	7.0368
4.60814	7.0412
4.58369	7.0554
4.5595	7.0771
4.53557	7.0815
4.51188	7.0962
4.48845	7.0971
4.46525	7.0862
4.44229	7.0669
4.41957	7.0505
4.39708	7.0368
4.37481	7.0112
4.35277	6.7947
4.33096	6.3828
4.30935	5.8901
4.28797	5.3757
4.26679	5.2727
4.24583	4.7261
4.22506	4.9221
4.2045	6.3491
4.18414	7.011
4.16398	7.0569
4.14401	7.0791
4.12423	7.0788
4.10464	7.1003
4.08523	7.0918
4.066	7.0845
4.04696	7.0962
4.02809	7.1028
4.0094	7.1003
3.99088	7.0998
3.97253	7.114
3.95435	7.104
3.93634	7.1162
3.91848	7.1242
3.90079	7.1157
3.88326	7.1172
3.86589	7.0913
3.84867	7.091
3.8316	7.0825
3.81468	7.0691
3.79791	7.0639
3.78129	7.0583
3.76482	7.0466
3.74848	7.0359
3.73229	7.0139
3.71624	7.0066
3.70032	6.9914
3.68454	6.9863
3.6689	6.9756
3.65338	6.958
3.638	6.948
3.62275	6.9443
3.60762	6.9367
3.59262	6.9233
3.57775	6.9189
3.56299	6.8962
3.54836	6.894
3.53385	6.8877
3.51945	6.8728
3.50517	6.8161
3.49101	6.7781
3.47696	6.7649
3.46303	6.7785
3.4492	6.7666
3.43549	6.7705
3.42188	6.7754
3.40838	6.6618
3.39499	6.6162
3.38171	6.6152
3.36852	6.594
3.35544	6.5764
3.34246	6.5864
3.32958	6.5857
3.3168	6.5749
3.30411	6.5571
3.29153	6.5535
3.27903	6.5266
3.26664	6.4961
3.25433	6.4902
3.24212	6.4746
3.23	6.4597
3.21797	6.4426
3.20603	6.4206
3.19418	6.4204
3.18241	6.4092
3.17074	6.3811
3.15914	6.3594
3.14763	6.3379
3.13621	6.3318
3.12487	6.3032
3.11361	6.3042
3.10243	6.2622
3.09133	6.2514
3.0803	6.229
3.06936	6.2087
3.0585	6.1816
3.04771	6.1706
3.037	6.1272
3.02636	6.1238
3.0158	6.1216
3.00531	6.0842
2.99489	6.0825
2.98454	6.0388
2.97427	6.0561
2.96407	6.04
2.95393	6.0195
2.94387	5.9983
2.93387	5.9609
2.92394	5.9558
2.91408	5.915
2.90429	5.9184
2.89456	5.9106
2.88489	5.917
2.87529	5.894
2.86576	5.894
2.85628	5.8452
2.84687	5.8755
2.83752	5.8442
2.82823	5.7895
2.81901	5.8545
2.80984	5.7842
2.80073	5.8723
2.79168	5.7685
2.78269	5.7173
2.77376	5.7124
2.76488	5.708
2.75606	5.5159
2.7473	5.6904
2.73859	5.8735
2.72994	5.7353
2.72134	5.6526
2.7128	5.6291
2.70431	5.6125
2.69587	5.5478
2.68748	5.6933
2.67915	5.7099
2.67087	5.7217
2.66264	5.9209
2.65446	5.9175
2.64633	5.841
2.63825	5.8882
2.63021	5.8462
2.62223	5.8677
2.6143	5.9582
2.60641	5.8345
2.59857	5.8098
2.59078	5.8498
2.58304	5.8364
2.57534	5.8799
2.56768	5.8733
2.56008	5.8926
2.55251	5.7578
2.54499	5.7724
2.53752	5.7571
2.53009	5.7641
2.5227	5.8
2.51536	5.7805
2.50806	5.7583
2.5008	5.7854
2.49358	5.7671
2.4864	5.7471
2.47927	5.7641
2.47218	5.7226
2.46512	5.7529
2.45811	5.7219
2.45114	5.72
2.4442	5.7305
2.43731	5.709
2.43045	5.7327
2.42363	5.7002
2.41685	5.678
2.41011	5.6933
2.40341	5.7016
2.39674	5.6806
2.39011	5.6682
2.38352	5.6203
2.37696	5.676
2.37044	5.6216
2.36395	5.6448
2.35751	5.623
2.35109	5.6465
2.34471	5.5813
2.33836	5.5842
2.33205	5.5823
2.32578	5.6123
2.31953	5.6343
2.31332	5.5918
2.30714	5.6262
2.301	5.5959
2.29489	5.6379
2.28881	5.6401
2.28276	5.6079
2.27675	5.6538
2.27076	5.6489
2.26481	5.5937
2.25889	5.6265
2.253	5.5713
2.24714	5.5879
2.24131	5.6118
2.23551	5.6133
2.22974	5.5972
2.224	5.6274
2.21829	5.5957
2.21261	5.5893
2.20696	5.584
2.20134	5.563
2.19574	5.6045
2.19018	5.6064
2.18464	5.6562
2.17913	5.6406
2.17365	5.6123
2.16819	5.6084
2.16277	5.6714
2.15737	5.5845
2.15199	5.6743
2.14665	5.6435
2.14133	5.6489
2.13603	5.6055
2.13077	5.6059
2.12552	5.6767
2.12031	5.6216
2.11512	5.6455
2.10995	5.647
2.10481	5.6279
2.0997	5.6924
2.09461	5.6758
2.08954	5.7031
2.0845	5.7388
2.07948	5.7178
