Name: Rutile TiO2
Type: Mineral
Class: Oxides
Subclass: (Rutile Group)
Particle Size: Coarse  (75 - 250  Micrometers)
Sample No.: rutile.1
Owner: JHU
Wavelength Range: IR
Origin: White Plains, Alexander County, North Carolina vie the
Description: The sample was composed of three small crystals with a
Measurement: Bidirectional reflectance
X Units: Wavelength (micrometers)
Y Units: Reflectance (percent)
wavelength	value
25.0442	12.5317
24.3388	12.7973
23.6719	12.0693
23.0407	10.1704
22.4422	6.6108
21.8741	6.1672
21.334	7.4936
20.8199	9.269
20.33	11.3247
19.8627	13.3476
19.4163	14.6274
18.9896	14.986
18.5812	14.9275
18.19	14.6091
17.815	14.4433
17.4551	14.51
17.1094	14.6084
16.7772	14.812
16.4576	15.0598
16.15	15.2741
15.8537	15.3293
15.568	15.4426
15.2925	15.3332
15.0265	15.1923
14.7697	15.1245
14.5214	14.9875
14.2814	14.8244
14.0492	14.8317
13.8244	14.758
13.6067	14.5669
13.3957	14.2238
13.1912	13.6533
12.9929	12.8142
12.8004	11.6677
12.6135	10.2981
12.432	8.9421
12.2557	7.666
12.0843	6.3384
11.9176	4.9148
11.7555	3.5161
11.5977	2.2812
11.444	1.3672
11.2944	0.8381
11.1487	0.6189
11.0067	0.6006
10.8682	0.647
10.7332	0.7634
10.6015	0.8804
10.473	0.9773
10.3476	1.093
10.2251	1.1914
10.1056	1.291
9.98873	1.3796
9.87458	1.4617
9.763	1.5437
9.65392	1.6248
9.54724	1.6797
9.44291	1.7424
9.34082	1.8003
9.24091	1.8735
9.14312	1.9416
9.04739	1.9978
8.95363	2.0571
8.8618	2.0898
8.77183	2.1201
8.68368	2.1728
8.59727	2.2053
8.51257	2.2331
8.42951	2.2693
8.34807	2.3103
8.26819	2.3503
8.18981	2.3972
8.11292	2.4353
8.03745	2.4739
7.96337	2.5388
7.89064	2.6047
7.81924	2.7004
7.74911	2.8213
7.68023	2.9517
7.61256	3.0915
7.54608	3.2361
7.48074	3.3826
7.41653	3.5154
7.35341	3.6382
7.29136	3.7725
7.23034	3.8948
7.17033	4.0146
7.11132	4.147
7.05327	4.2764
6.99616	4.4316
6.93996	4.5908
6.88467	4.7554
6.83024	4.9224
6.77667	5.0766
6.72393	5.2261
6.67201	5.3904
6.62089	5.5542
6.57054	5.7068
6.52095	5.8808
6.4721	6.0539
6.42398	6.2295
6.37657	6.4182
6.32986	6.6028
6.28382	6.7932
6.23845	6.9848
6.19373	7.1885
6.14965	7.4243
6.10619	7.6894
6.06334	7.9883
6.02109	8.2822
5.97942	8.5986
5.93832	8.8979
5.89778	9.2121
5.8578	9.5173
5.81835	9.789
5.77943	10.0747
5.74103	10.3423
5.70314	10.6274
5.66574	10.8987
5.62883	11.1491
5.5924	11.3957
5.55644	11.6237
5.52093	11.834
5.48588	12.0378
5.45127	12.2304
5.41709	12.4238
5.38334	12.6242
5.35	12.8305
5.31708	13.0495
5.28456	13.2575
5.25243	13.4463
5.2207	13.6225
5.18934	13.7819
5.15836	13.9297
5.12775	14.0749
5.09749	14.2104
5.0676	14.3315
5.03805	14.456
5.00884	14.5979
4.97998	14.7263
4.95144	14.8466
4.92322	14.9533
4.89533	15.0747
4.86775	15.1733
4.84048	15.2397
4.81351	15.2539
4.78684	15.1618
4.76047	14.8706
4.73439	14.4929
4.70859	14.5185
4.68306	14.9116
4.65782	15.3144
4.63284	15.6464
4.60814	15.8518
4.58369	15.9921
4.5595	16.0822
4.53557	16.1587
4.51188	16.2348
4.48845	16.3232
4.46525	16.4191
4.44229	16.5073
4.41957	16.5859
4.39708	16.6496
4.37481	16.7011
4.35277	16.7221
4.33096	16.7294
4.30935	16.7041
4.28797	16.611
4.26679	16.0461
4.24583	16.665
4.22506	16.9377
4.2045	17.0312
4.18414	17.0883
4.16398	17.1272
4.14401	17.1484
4.12423	17.1657
4.10464	17.1901
4.08523	17.2197
4.066	17.2587
4.04696	17.2724
4.02809	17.2832
4.0094	17.2907
3.99088	17.2827
3.97253	17.2793
3.95435	17.2876
3.93634	17.3093
3.91848	17.3286
3.90079	17.3413
3.88326	17.3435
3.86589	17.3447
3.84867	17.343
3.8316	17.3449
3.81468	17.3608
3.79791	17.3674
3.78129	17.3686
3.76482	17.3779
3.74848	17.3664
3.73229	17.3598
3.71624	17.3386
3.70032	17.3134
3.68454	17.2766
3.6689	17.2419
3.65338	17.2292
3.638	17.1955
3.62275	17.1535
3.60762	17.1076
3.59262	17.0573
3.57775	16.9921
3.56299	16.9345
3.54836	16.8432
3.53385	16.7685
3.51945	16.6731
3.50517	16.5412
3.49101	16.4477
3.47696	16.384
3.46303	16.3093
3.4492	16.2033
3.43549	16.0883
3.42188	15.9526
3.40838	15.8691
3.39499	15.8471
3.38171	15.7675
3.36852	15.6767
3.35544	15.614
3.34246	15.5332
3.32958	15.4099
3.3168	15.2321
3.30411	15.0195
3.29153	14.8393
3.27903	14.674
3.26664	14.486
3.25433	14.3093
3.24212	14.2075
3.23	14.143
3.21797	14.1115
3.20603	14.0661
3.19418	14.0207
3.18241	13.9528
3.17074	13.7985
3.15914	13.6472
3.14763	13.466
3.13621	13.3047
3.12487	13.1513
3.11361	12.8662
3.10243	12.3176
3.09133	11.3596
3.0803	9.947
3.06936	7.9431
3.0585	5.5251
3.04771	4.3894
3.037	4.6489
3.02636	5.334
3.0158	6.7619
3.00531	7.4436
2.99489	9.3098
2.98454	10.9441
2.97427	11.7822
2.96407	12.0979
2.95393	12.3899
2.94387	12.6528
2.93387	12.8462
2.92394	13.0232
2.91408	13.2331
2.90429	13.5
2.89456	13.7246
2.88489	13.9511
2.87529	14.1428
2.86576	14.311
2.85628	14.4758
2.84687	14.6201
2.83752	14.7014
2.82823	14.7895
2.81901	14.9155
2.80984	15.0105
2.80073	15.1189
2.79168	15.2402
2.78269	15.3452
2.77376	15.4228
2.76488	15.5293
2.75606	15.643
2.7473	15.8361
2.73859	15.9838
2.72994	16.1565
2.72134	16.3107
2.7128	16.4382
2.70431	16.5161
2.69587	16.7446
2.68748	16.9668
2.67915	17.1069
2.67087	17.1975
2.66264	17.3398
2.65446	17.4267
2.64633	17.5122
2.63825	17.5737
2.63021	17.5976
2.62223	17.6503
2.6143	17.6989
2.60641	17.7089
2.59857	17.768
2.59078	17.8139
2.58304	17.8403
2.57534	17.8496
2.56768	17.8447
2.56008	17.8398
2.55251	17.8168
2.54499	17.8012
2.53752	17.7412
2.53009	17.6313
2.5227	17.4536
2.51536	17.2993
2.50806	17.2148
2.5008	17.1792
2.49358	17.1464
2.4864	17.1694
2.47927	17.185
2.47218	17.1953
2.46512	17.2104
2.45811	17.2954
2.45114	17.4282
2.4442	17.5585
2.43731	17.6892
2.43045	17.7814
2.42363	17.851
2.41685	17.9475
2.41011	18.0197
2.40341	18.008
2.39674	18.0209
2.39011	18.048
2.38352	18.0864
2.37696	18.0952
2.37044	18.1281
2.36395	18.1279
2.35751	18.0961
2.35109	18.1242
2.34471	18.1123
2.33836	18.093
2.33205	18.0454
2.32578	17.9653
2.31953	17.8437
2.31332	17.5698
2.30714	17.0947
2.301	16.7373
2.29489	16.9184
2.28881	17.3078
2.28276	17.6562
2.27675	17.8115
2.27076	17.9497
2.26481	18.1308
2.25889	18.2519
2.253	18.3654
2.24714	18.3852
2.24131	18.3928
2.23551	18.4826
2.22974	18.5109
2.224	18.5195
2.21829	18.5627
2.21261	18.6379
2.20696	18.6523
2.20134	18.6479
2.19574	18.7368
2.19018	18.7109
2.18464	18.718
2.17913	18.7578
2.17365	18.7668
2.16819	18.8515
2.16277	18.8544
2.15737	18.8837
2.15199	18.873
2.14665	18.9038
2.14133	18.8928
2.13603	18.958
2.13077	18.9924
2.12552	19.0158
2.12031	19.0434
2.11512	19.0842
2.10995	19.091
2.10481	19.1799
2.0997	19.2092
2.09461	19.215
2.08954	19.2597
2.0845	19.3178
2.07948	19.3178
