Name: Cerussite, PbCO3
Type: Mineral
Class: Carbonates
Particle Size: Fine (Less than 2 Micrometers)
Sample No.: cerussite.1
Owner: JHU
Wavelength Range: IR
Origin: Sample from Australia; donated by Norma Vergo.
Description: The sample was a light tan irregular mass and appeared
Measurement: Transmission
X Units: Wavelength (micrometers)
Y Units: Transmittance (percent)
wavelength	value
25.044	99.1638
24.339	98.6912
23.672	98.8083
23.041	98.5408
22.442	98.9138
21.874	98.4236
21.334	97.4216
20.82	96.7595
20.33	96.0203
19.863	95.9412
19.416	95.7664
18.99	95.6755
18.581	95.2556
18.19	95.1892
17.815	95.239
17.455	94.8533
17.109	95.0232
16.777	95.3162
16.458	95.7927
16.15	96.031
15.854	95.532
15.568	94.8347
15.292	94.0916
15.027	91.4314
14.77	66.4412
14.521	97.4045
14.281	96.4983
14.049	96.0232
13.824	95.1409
13.607	94.8748
13.396	94.8962
13.191	94.6174
12.993	94.2146
12.8	93.7361
12.614	93.4451
12.432	93.1189
12.256	92.283
12.084	90.0452
11.918	71.2894
11.755	91.7986
11.598	93.3181
11.444	93.0779
11.294	92.4705
11.149	91.9783
11.007	91.3435
10.868	90.7879
10.733	90.4685
10.602	90.3699
10.473	90.2009
10.348	89.5398
10.225	88.6008
10.106	87.6297
9.989	87.3015
9.875	86.8015
9.763	86.2425
9.654	85.3616
9.547	82.9388
9.443	86.2449
9.341	85.9749
9.241	85.6272
9.143	85.0701
9.047	84.6092
8.954	85.1038
8.862	84.9646
8.772	84.7996
8.684	84.5799
8.597	84.3408
8.513	83.8269
8.43	83.283
8.348	82.6931
8.268	81.9883
8.19	81.2625
8.113	80.2918
8.037	79.1268
7.963	77.7635
7.891	76.1797
7.819	74.3445
7.749	72.283
7.68	70.252
7.613	68.5613
7.546	66.5931
7.481	63.8302
7.417	60.3651
7.353	55.5936
7.291	49.4252
7.23	41.6884
7.17	36.9093
7.111	41.1749
7.053	46.0013
6.996	46.1
6.94	48.1747
6.885	53.6632
6.83	59.7806
6.777	66.0867
6.724	72.5352
6.672	78.1121
6.621	82.4139
6.571	85.6248
6.521	88.2127
6.472	90.4099
6.424	92.2266
6.377	93.8416
6.33	95.5635
6.284	98.7292
6.238	102.116
6.194	97.1794
6.15	95.8245
6.106	95.8958
6.063	96.3093
6.021	96.7217
5.979	97.178
5.938	97.1279
5.898	96.8477
5.858	96.4949
5.818	95.4265
5.779	92.0652
5.741	94.3584
5.703	96.543
5.666	96.0901
5.629	95.7141
5.592	95.3982
5.556	95.0674
5.521	94.6912
5.486	94.364
5.451	94.0674
5.417	93.7656
5.383	93.4944
5.35	93.2102
5.317	92.9363
5.285	92.6707
5.252	92.4246
5.221	92.1533
5.189	91.9065
5.158	91.6878
5.128	91.4336
5.097	91.2063
5.068	91.0027
5.038	90.7539
5.009	90.5481
4.98	90.3233
4.951	90.1111
4.923	89.8923
4.895	89.6787
4.868	89.5379
4.84	89.3718
4.814	89.2324
4.787	89.0437
4.76	88.8904
4.734	88.6775
4.709	88.542
4.683	88.3943
4.658	88.2244
4.633	88.1121
4.608	88.0039
4.584	87.8965
4.56	87.7803
4.536	87.5574
4.512	87.3838
4.488	87.1836
4.465	86.9973
4.442	86.8313
4.42	86.6316
4.397	86.4519
4.375	86.2825
4.353	86.1043
4.331	85.9265
4.309	85.7215
4.288	85.4178
4.267	85.1741
4.246	85.0764
4.225	84.8387
4.205	84.6624
4.184	84.2537
4.164	83.6394
4.144	83.8289
4.124	84.5125
4.105	84.6717
4.085	84.5818
4.066	84.4265
4.047	84.3225
4.028	84.2259
4.009	84.1101
3.991	84.033
3.973	83.9466
3.954	83.8582
3.936	83.7781
3.918	83.6902
3.901	83.5745
3.883	83.4378
3.866	83.3089
3.849	83.178
3.832	83.0266
3.815	82.8963
3.798	82.7639
3.781	82.6062
3.765	82.4783
3.748	82.3377
3.732	82.2171
3.716	82.0818
3.7	81.9163
3.685	81.7498
3.669	81.5545
3.653	81.4417
3.638	81.4182
3.623	81.3616
3.608	81.2371
3.593	81.1643
3.578	81.1062
3.563	81.0237
3.548	80.9534
3.534	80.8343
3.519	80.7039
3.505	80.3807
3.491	80.4236
3.477	80.3933
3.463	80.2542
3.449	80.0389
3.435	79.8191
3.422	79.4046
3.408	79.4119
3.395	79.5642
3.382	79.4788
3.369	79.4241
3.355	79.3831
3.342	79.3265
3.33	79.2366
3.317	79.1463
3.304	79.0335
3.292	78.9085
3.279	78.7757
3.267	78.6228
3.254	78.5057
3.242	78.4148
3.23	78.284
3.218	78.1585
3.206	78.0643
3.194	77.9666
3.182	77.8611
3.171	77.7791
3.159	77.7752
3.148	77.8772
3.136	77.6424
3.125	77.0516
3.114	76.8187
3.102	76.6272
3.091	76.4178
3.08	76.2635
3.069	76.0965
3.058	76.0281
3.048	75.9314
3.037	75.8357
3.026	75.7273
3.016	75.6629
3.005	75.5506
2.995	75.4168
2.985	75.3143
2.974	75.2391
2.964	75.2186
2.954	75.3377
2.944	75.7068
2.934	76.2742
2.924	76.8914
2.914	76.8797
2.904	75.9881
2.895	75.3885
2.885	75.5037
2.875	75.9266
2.866	75.9217
2.856	75.9021
2.847	75.6336
2.838	75.2772
2.828	74.8826
2.819	74.5682
2.81	74.324
2.801	74.1912
2.792	74.0203
2.783	74.0086
2.774	74.1453
2.765	74.1961
2.756	74.2732
2.747	74.2381
2.739	74.3484
2.73	74.1375
2.721	74.0369
2.713	74.0125
2.704	74.0135
2.696	73.8553
2.687	73.7586
2.679	73.6678
2.671	73.5906
2.663	73.494
2.654	73.3787
2.646	73.3406
2.638	73.1951
2.63	73.201
2.622	73.1092
2.614	73.0203
2.606	72.9266
2.599	72.8592
2.591	72.7498
2.583	72.7039
2.575	72.5936
2.568	72.4734
2.56	72.4373
2.553	72.41
2.545	72.2859
2.538	72.2225
2.53	72.1727
2.523	72.0701
2.515	72.0858
2.508	71.9998
2.501	71.8514
2.494	71.7576
2.486	71.744
2.479	71.7147
2.472	71.6346
2.465	71.4764
2.458	71.449
2.451	71.535
2.444	71.3865
2.437	71.3377
2.43	71.2303
2.424	71.1014
2.417	71.1033
2.41	70.992
2.403	70.9373
2.397	70.8553
2.39	70.824
2.384	70.699
2.377	70.6697
2.37	70.742
2.364	70.5252
2.358	70.4686
2.351	70.3826
2.345	70.3358
2.338	70.3533
2.332	70.2674
2.326	70.2069
2.32	70.0311
2.313	69.9139
2.307	69.8475
2.301	69.91
2.295	69.8611
2.289	69.6736
2.283	69.7186
2.277	69.6268
2.271	69.5506
2.265	69.4471
2.259	69.4471
2.253	69.3631
2.247	69.2694
2.241	69.1893
2.236	69.1815
2.23	69.0858
2.224	69.1424
2.218	69.1248
2.213	69.033
2.207	68.9334
2.201	68.7908
2.196	68.7205
2.19	68.6737
2.185	68.6639
2.179	68.6502
2.174	68.4608
2.168	68.2908
2.163	68.1502
2.157	68.3768
2.152	68.2186
2.147	68.2049
2.141	68.0897
2.136	68.1131
2.131	68.0155
2.126	67.867
2.12	67.8748
2.115	67.8944
2.11	67.8201
2.105	67.6756
2.1	67.6287
2.095	67.5975
2.09	67.5936
2.085	67.4686
2.079	67.3201
