Name: Chromite Fe+2Cr2O4
Type: Mineral
Class: Oxides (Spinel Group)
Particle Size: Fine (less than 2 Micrometers)
Sample No.: chromite.1
Owner: JHU
Wavelength Range: IR
Origin: Smithsonian NMNH 117075; Sample from Tiebaghi Mine, New
Description: The sample was one large (3.5 cm x 2 cm x 2 cm) piece
Measurement: Transmission
X Units: Wavelength (micrometers)
Y Units: Transmittance (percent)
wavelength	value
25.0442	79.0154
24.3387	75.6814
23.6719	70.3299
23.0407	63.7225
22.4422	60.2225
21.874	59.8924
21.334	55.3983
20.8199	47.996
20.33	32.4257
19.8626	18.708
19.4163	16.6552
18.9896	19.0297
18.5812	27.0507
18.19	36.4613
17.815	46.8427
17.4551	59.284
17.1094	62.9608
16.7772	60.0565
16.4576	53.9632
16.15	41.2304
15.8537	20.3154
15.568	16.436
15.2925	22.2446
15.0265	29.1713
14.7697	34.7514
14.5214	37.2792
14.2814	41.5502
14.0492	50.493
13.8244	61.3683
13.6067	70.7303
13.3957	77.8221
13.1912	82.5059
12.9929	85.0681
12.8004	86.4541
12.6135	87.5
12.432	88.4776
12.2557	89.2693
12.0843	89.6516
11.9176	90.0098
11.7555	90.0642
11.5977	90.241
11.444	90.1912
11.2944	89.9509
11.1487	90.0086
11.0067	89.991
10.8682	89.885
10.7332	89.7022
10.6015	89.6355
10.473	90.0735
10.3476	90.4124
10.2252	90.2959
10.1056	90.043
9.98873	89.6404
9.87457	89.3128
9.763	89.0635
9.65392	88.76
9.54724	88.4385
9.4429	88.072
9.34082	87.4925
9.24091	86.9055
9.14312	86.9851
9.04738	88.0117
8.95363	89.1121
8.8618	90.0022
8.77184	90.7515
8.68368	91.3284
8.59727	91.7129
8.51257	92.1978
8.42952	92.948
8.34807	93.6169
8.26819	94.2991
8.18981	94.8616
8.11292	95.2527
8.03745	95.5408
7.96337	95.7361
7.89064	95.9163
7.81924	95.9119
7.74911	95.9177
7.68023	95.9021
7.61256	95.804
7.54608	95.7429
7.48074	95.7039
7.41653	95.5496
7.35341	95.3838
7.29136	95.3088
7.23034	95.1736
7.17033	95.0559
7.11132	94.9548
7.05327	94.8699
6.99616	94.7815
6.93996	94.6628
6.88467	94.5532
6.83024	94.4719
6.77667	94.467
6.72393	94.3782
6.67201	94.2859
6.62089	94.178
6.57054	94.092
6.52095	93.8621
6.4721	93.6043
6.42398	93.3689
6.37657	93.0686
6.32986	92.7527
6.28382	92.5046
6.23845	92.1721
6.19373	91.8518
6.14965	91.5662
6.10619	91.5818
6.06334	91.6619
6.02108	91.7268
5.97942	91.9631
5.93832	92.2615
5.89778	92.3992
5.8578	92.4085
5.81835	92.4109
5.77943	92.3189
5.74104	92.2561
5.70314	92.2761
5.66574	92.1775
5.62883	92.093
5.5924	92.0017
5.55644	91.874
5.52093	91.7639
5.48588	91.6526
5.45127	91.5483
5.41709	91.4368
5.38334	91.2405
5.35	91.1658
5.31708	91.0496
5.28456	90.9963
5.25243	90.8338
5.2207	90.6707
5.18934	90.6106
5.15836	90.4754
5.12775	90.3855
5.0975	90.2761
5.0676	90.1091
5.03805	89.9964
5.00884	89.8567
4.97998	89.7442
4.95144	89.6546
4.92322	89.543
4.89533	89.3909
4.86775	89.241
4.84048	89.1507
4.81351	89.0369
4.78684	88.9922
4.76047	88.8313
4.73439	88.6914
4.70859	88.5769
4.68307	88.4028
4.65782	88.3391
4.63284	88.2024
4.60814	88.1109
4.58369	87.9636
4.5595	87.8362
4.53557	87.6453
4.51188	87.52
4.48845	87.4202
4.46525	87.2832
4.44229	87.1546
4.41957	86.9275
4.39708	86.7991
4.37481	86.7649
4.35278	86.5344
4.33096	86.4036
4.30935	86.282
4.28797	86.1795
4.26679	86.0371
4.24583	85.8743
4.22506	85.7302
4.2045	85.5252
4.18414	85.4546
4.16398	85.2918
4.14401	85.1262
4.12423	85.0193
4.10464	84.8418
4.08523	84.6512
4.066	84.468
4.04696	84.3357
4.02809	84.1826
4.0094	84.0608
3.99088	83.8645
3.97253	83.6856
3.95435	83.5371
3.93634	83.3797
3.91848	83.2237
3.90079	82.9964
3.88326	82.7793
3.86589	82.5877
3.84867	82.4178
3.8316	82.1963
3.81468	82.0652
3.79791	81.8181
3.78129	81.6487
3.76482	81.4148
3.74848	81.2024
3.73229	80.9969
3.71624	80.8096
3.70032	80.5655
3.68454	80.365
3.6689	80.1399
3.65339	79.9568
3.638	79.7273
3.62275	79.503
3.60762	79.2791
3.59262	79.0066
3.57775	78.8018
3.56299	78.584
3.54836	78.2832
3.53385	77.9749
3.51945	77.7276
3.50517	77.3641
3.49101	77.2305
3.47696	77.032
3.46303	76.7432
3.4492	76.4935
3.43549	76.0833
3.42188	75.7637
3.40838	75.4874
3.39499	75.4053
3.38171	75.2371
3.36852	75.0931
3.35544	74.8357
3.34246	74.5997
3.32958	74.3721
3.3168	74.0936
3.30411	73.7491
3.29153	73.5176
3.27903	73.4092
3.26664	73.1719
3.25433	72.7706
3.24212	72.5831
3.23	72.2254
3.21797	72.0284
3.20603	71.7269
3.19418	71.5486
3.18241	71.1934
3.17074	71.0467
3.15914	70.7029
3.14763	70.4608
3.13621	70.1385
3.12487	69.9344
3.11361	69.7811
3.10243	69.5306
3.09133	69.2601
3.0803	69.014
3.06936	68.8231
3.0585	68.6771
3.04771	68.45
3.037	68.3162
3.02636	68.0301
3.0158	67.6688
3.00531	67.3538
2.99489	67.2586
2.98454	67.0833
2.97427	66.7918
2.96407	66.4334
2.95393	66.2508
2.94387	66.1248
2.93387	65.9305
2.92394	65.7132
2.91408	65.6229
2.90429	65.5921
2.89456	65.6663
2.88489	65.6561
2.87529	65.7147
2.86576	65.8597
2.85628	65.9124
2.84687	66.1541
2.83752	66.3104
2.82823	66.4149
2.81901	66.7967
2.80984	66.9471
2.80073	67.1512
2.79168	67.3988
2.78269	67.7176
2.77376	67.9276
2.76488	68.243
2.75606	68.4671
2.7473	68.7362
2.73859	68.9422
2.72994	68.9051
2.72134	68.8123
2.7128	68.9866
2.70431	68.8109
2.69587	68.7152
2.68748	68.7054
2.67915	68.6644
2.67087	68.4261
2.66264	68.1346
2.65446	68.201
2.64633	67.9359
2.63825	67.7425
2.63021	67.7664
2.62223	67.4788
2.6143	67.2479
2.60641	67.2908
2.59857	67.0823
2.59078	67.0584
2.58304	66.9862
2.57534	66.6566
2.56768	66.4383
2.56008	66.4578
2.55251	66.2108
2.54499	66.1385
2.53752	65.9451
2.53009	65.6834
2.5227	65.4715
2.51536	65.4071
2.50806	65.4158
2.5008	65.285
2.49358	65.0584
2.4864	64.9803
2.47927	64.7625
2.47218	64.5741
2.46512	64.4539
2.45811	64.4969
2.45114	64.4305
2.4442	64.0448
2.43731	63.8075
2.43045	63.9422
2.42363	63.8416
2.41685	63.5369
2.41011	63.4744
2.40341	63.368
2.39674	63.328
2.39011	63.0018
2.38352	62.7508
2.37696	62.9061
2.37044	62.6952
2.36395	62.5409
2.35751	62.3436
2.35109	62.367
2.34471	62.0789
2.33836	62.0682
2.33205	61.7694
2.32578	61.6532
2.31953	61.7479
2.31332	61.6571
2.30714	61.492
2.301	61.6209
2.29489	61.4852
2.28881	61.2772
2.28276	61.242
2.27675	61.2186
2.27076	61.1327
2.26481	60.9686
2.25889	60.8407
2.253	60.9413
2.24714	60.742
2.24131	60.6922
2.23551	60.6053
2.22974	60.4452
2.224	60.2313
2.21829	60.4061
2.21261	60.3407
2.20696	60.2821
2.20134	60.0077
2.19574	59.9881
2.19018	60.0672
2.18464	59.6024
2.17913	59.8045
2.17365	59.9491
2.16819	59.8758
2.16277	59.6815
2.15737	59.2498
2.15199	59.2245
2.14665	59.4998
2.14133	59.4256
2.13603	59.0096
2.13077	59.1112
2.12552	59.0936
2.12031	59.2577
2.11512	59.1131
2.10995	58.6834
2.10481	58.8123
2.0997	59.1756
2.09461	58.8006
2.08954	58.9061
2.0845	58.7538
2.07948	58.7831
