Name: Tremolite Ca2(Mg, Fe+2)5Si8O22(OH)2
Type: Mineral
Class: Silicates
Subclass: Inosilicates (Chain Silicates); (Amphibole Group)
Particle Size: Solid (cleavage face)
Sample No.: tremol.2
Owner: JHU
Wavelength Range: IR
Origin: Canada via the Smithsonian (sample no. NMNH 117611)
Description: The sample consisted of a single 21.41 g piece of
Measurement: Bidirectional reflectance
X Units: Wavelength (micrometers)
Y Units: Reflectance (percent)
wavelength	value
25.0442	23.9726
24.3388	24.54
23.6719	27.3486
23.0407	30.7284
22.4422	37.4237
21.8741	43.9325
21.334	37.2401
20.8199	33.4081
20.33	38.8158
19.8627	45.3212
19.4163	45.8602
18.9896	48.1847
18.5812	54.0753
18.19	46.965
17.815	42.0822
17.4551	38.411
17.1094	25.4911
16.7772	12.4572
16.4576	9.4873
16.15	10.1377
15.8537	10.6841
15.568	11.8479
15.2925	13.1106
15.0265	14.7483
14.7697	12.0278
14.5214	11.749
14.2814	11.8579
14.0492	12.3235
13.8244	12.4834
13.6067	13.6035
13.3957	14.6428
13.1912	13.844
12.9929	12.5945
12.8004	13.1987
12.6135	13.7553
12.432	14.2783
12.2557	14.7866
12.0843	15.3881
11.9176	16.0932
11.7555	16.7583
11.5977	17.4321
11.444	18.4282
11.2944	19.894
11.1487	21.489
11.0067	23.4108
10.8682	25.2895
10.7332	24.7958
10.6015	26.4296
10.473	33.4662
10.3476	40.4852
10.2251	46.5609
10.1056	51.7206
9.98873	52.3475
9.87458	47.4579
9.763	37.7611
9.65392	31.8415
9.54724	33.2663
9.44291	36.6352
9.34082	38.0185
9.24091	39.5768
9.14312	37.2553
9.04739	32.3637
8.95363	29.9775
8.8618	28.5341
8.77183	30.6293
8.68368	34.9972
8.59727	32.3722
8.51257	22.4223
8.42951	14.1196
8.34807	7.6821
8.26819	2.8071
8.18981	2.7864
8.11292	3.582
8.03745	4.2617
7.96337	4.8347
7.89064	5.3281
7.81924	5.7847
7.74911	6.1487
7.68023	6.4729
7.61256	6.7595
7.54608	6.9971
7.48074	7.2239
7.41653	7.4287
7.35341	7.6052
7.29136	7.7551
7.23034	7.896
7.17033	8.0115
7.11132	8.144
7.05327	8.2468
6.99616	8.3269
6.93996	8.4026
6.88467	8.4853
6.83024	8.5532
6.77667	8.6172
6.72393	8.6697
6.67201	8.727
6.62089	8.7793
6.57054	8.8203
6.52095	8.9006
6.4721	8.935
6.42398	8.9602
6.37657	9.0046
6.32986	9.0649
6.28382	9.1069
6.23845	9.1484
6.19373	9.1557
6.14965	9.206
6.10619	9.2058
6.06334	9.2619
6.02109	9.2805
5.97942	9.2676
5.93832	9.219
5.89778	9.2163
5.8578	9.2365
5.81835	9.2341
5.77943	9.3364
5.74103	9.4204
5.70314	9.4228
5.66574	9.4128
5.62883	9.4219
5.5924	9.4397
5.55644	9.4536
5.52093	9.4699
5.48588	9.5146
5.45127	9.5605
5.41709	9.5876
5.38334	9.6303
5.35	9.6599
5.31708	9.6887
5.28456	9.7148
5.25243	9.7326
5.2207	9.7485
5.18934	9.7304
5.15836	9.7141
5.12775	9.695
5.09749	9.6823
5.0676	9.6606
5.03805	9.6582
5.00884	9.6753
4.97998	9.6924
4.95144	9.7014
4.92322	9.7251
4.89533	9.7522
4.86775	9.7827
4.84048	9.8095
4.81351	9.8503
4.78684	9.8862
4.76047	9.914
4.73439	9.9509
4.70859	10.0239
4.68306	10.0429
4.65782	10.0595
4.63284	10.1189
4.60814	10.1762
4.58369	10.2478
4.5595	10.3215
4.53557	10.4018
4.51188	10.4841
4.48845	10.5779
4.46525	10.6665
4.44229	10.7119
4.41957	10.7724
4.39708	10.823
4.37481	10.852
4.35277	10.8794
4.33096	10.896
4.30935	10.8911
4.28797	10.9155
4.26679	10.9404
4.24583	10.9516
4.22506	10.9648
4.2045	10.9663
4.18414	10.9863
4.16398	11.0027
4.14401	11.01
4.12423	11.0114
4.10464	11.0288
4.08523	11.0415
4.066	11.0493
4.04696	11.0537
4.02809	11.0591
4.0094	11.0537
3.99088	11.06
3.97253	11.0713
3.95435	11.0727
3.93634	11.0739
3.91848	11.0798
3.90079	11.0776
3.88326	11.0813
3.86589	11.0761
3.84867	11.0727
3.8316	11.0742
3.81468	11.0683
3.79791	11.0605
3.78129	11.0464
3.76482	11.0342
3.74848	11.0278
3.73229	11.0171
3.71624	10.997
3.70032	10.9717
3.68454	10.9367
3.6689	10.9106
3.65338	10.9052
3.638	10.8945
3.62275	10.852
3.60762	10.8374
3.59262	10.8257
3.57775	10.7888
3.56299	10.7612
3.54836	10.726
3.53385	10.665
3.51945	10.5927
3.50517	10.5029
3.49101	10.5427
3.47696	10.5385
3.46303	10.5127
3.4492	10.4384
3.43549	10.3879
3.42188	10.28
3.40838	10.3095
3.39499	10.3396
3.38171	10.3247
3.36852	10.3779
3.35544	10.3525
3.34246	10.2954
3.32958	10.2632
3.3168	10.2434
3.30411	10.2026
3.29153	10.1858
3.27903	10.1379
3.26664	10.0788
3.25433	10.0227
3.24212	10.009
3.23	9.9646
3.21797	9.9502
3.20603	9.9299
3.19418	9.8906
3.18241	9.842
3.17074	9.7849
3.15914	9.7427
3.14763	9.6938
3.13621	9.6382
3.12487	9.5871
3.11361	9.5415
3.10243	9.5078
3.09133	9.4719
3.0803	9.4433
3.06936	9.395
3.0585	9.3664
3.04771	9.3489
3.037	9.3037
3.02636	9.2607
3.0158	9.2287
3.00531	9.1894
2.99489	9.177
2.98454	9.1684
2.97427	9.1162
2.96407	9.0698
2.95393	9.0498
2.94387	9.0151
2.93387	8.9961
2.92394	8.9565
2.91408	8.9219
2.90429	8.9045
2.89456	8.8789
2.88489	8.8459
2.87529	8.8305
2.86576	8.8147
2.85628	8.8127
2.84687	8.7842
2.83752	8.7629
2.82823	8.7373
2.81901	8.719
2.80984	8.7168
2.80073	8.7104
2.79168	8.6924
2.78269	8.6692
2.77376	8.6865
2.76488	8.6135
2.75606	8.5676
2.7473	8.5657
2.73859	8.3144
2.72994	7.9446
2.72134	7.8222
2.7128	8.0097
2.70431	7.7251
2.69587	7.6782
2.68748	7.9697
2.67915	8.3779
2.67087	8.8745
2.66264	9.123
2.65446	9.1025
2.64633	9.0512
2.63825	9.042
2.63021	8.998
2.62223	8.9775
2.6143	8.9389
2.60641	8.8652
2.59857	8.8481
2.59078	8.8052
2.58304	8.7842
2.57534	8.768
2.56768	8.7207
2.56008	8.6665
2.55251	8.6274
2.54499	8.622
2.53752	8.6328
2.53009	8.622
2.5227	8.6118
2.51536	8.5469
2.50806	8.542
2.5008	8.5298
2.49358	8.4756
2.4864	8.4902
2.47927	8.4321
2.47218	8.3989
2.46512	8.372
2.45811	8.3633
2.45114	8.372
2.4442	8.3183
2.43731	8.3135
2.43045	8.3125
2.42363	8.3095
2.41685	8.2832
2.41011	8.3271
2.40341	8.2637
2.39674	8.1494
2.39011	8.0141
2.38352	7.9551
2.37696	7.895
2.37044	8.0508
2.36395	8.1177
2.35751	8.2095
2.35109	8.2246
2.34471	8.3242
2.33836	8.2832
2.33205	8.2295
2.32578	8.1172
2.31953	7.9092
2.31332	7.7304
2.30714	7.8603
2.301	8.0654
2.29489	8.1631
2.28881	8.2871
2.28276	8.3349
2.27675	8.4287
2.27076	8.4844
2.26481	8.5195
2.25889	8.5517
2.253	8.5752
2.24714	8.5947
2.24131	8.6513
2.23551	8.6767
2.22974	8.748
2.224	8.6455
2.21829	8.7392
2.21261	8.7178
2.20696	8.6953
2.20134	8.7236
2.19574	8.7353
2.19018	8.789
2.18464	8.7988
2.17913	8.7636
2.17365	8.8291
2.16819	8.8301
2.16277	8.8261
2.15737	8.8222
2.15199	8.7988
2.14665	8.8281
2.14133	8.8125
2.13603	8.8496
2.13077	8.8125
2.12552	8.8281
2.12031	8.8457
2.11512	8.9179
2.10995	8.8906
2.10481	8.8984
2.0997	8.9082
2.09461	8.9336
2.08954	8.958
2.0845	8.9345
2.07948	8.9228
