Name: Nepheline (Na,K)AlSiO4
Type: Mineral
Class: Silicates
Subclass: Tectosilicates (Framework Silicates); (Feldspathoid Group)
Particle Size: Fine  (Less than 2 Micrometers)
Sample No.: nephel.2
Owner: JHU
Wavelength Range: IR
Origin: Brevig, Norway via Norma Vergo
Description: The hand sample was a massive chunk of unusually dark
Measurement: Tansmission
X Units: Wavelength (micrometers)
Y Units: Transmittance (percent)
wavelength	value
25.044	75.0623
24.339	71.1287
23.672	69.0662
23.041	65.9764
22.442	55.703
21.874	42.6972
21.334	28.9335
20.82	41.0663
20.33	61.867
19.863	62.8016
19.416	59.0565
18.99	74.1443
18.581	83.4724
18.19	91.867
17.815	95.2781
17.455	95.5671
17.109	95.9499
16.777	97.1384
16.458	96.864
16.15	96.0369
15.854	94.8064
15.568	93.5857
15.292	90.1892
15.027	83.908
14.77	73.5413
14.521	60.8402
14.281	55.785
14.049	58.6131
13.824	67.1195
13.607	77.3362
13.396	83.803
13.191	88.7302
12.993	91.0408
12.8	93.2537
12.614	94.4885
12.432	94.3342
12.256	93.198
12.084	91.5447
11.918	89.3259
11.755	86.6814
11.598	83.7132
11.444	80.4436
11.294	76.5213
11.149	71.6082
11.007	65.4754
10.868	59.6336
10.733	53.7909
10.602	45.5043
10.473	34.4345
10.348	24.707
10.225	18.1084
10.106	15.4526
9.989	15.2006
9.875	17.687
9.763	21.6699
9.654	24.7187
9.547	27.6586
9.443	33.6894
9.341	37.1601
9.241	38.7055
9.143	39.8539
9.047	45.4725
8.954	51.2225
8.862	56.3065
8.772	61.1566
8.684	65.5184
8.597	69.4717
8.513	72.8272
8.43	75.8428
8.348	78.407
8.268	80.545
8.19	82.2
8.113	83.4971
8.037	84.597
7.963	85.5635
7.891	86.387
7.819	87.1013
7.749	87.7588
7.68	88.3545
7.613	88.928
7.546	89.4404
7.481	89.8877
7.417	90.2852
7.353	90.6074
7.291	90.9011
7.23	91.1814
7.17	91.4246
7.111	91.6804
7.053	91.9375
6.996	92.2996
6.94	92.624
6.885	92.8074
6.83	92.9495
6.777	93.0586
6.724	93.2195
6.672	93.3672
6.621	93.5525
6.571	93.7607
6.521	94.0789
6.472	94.3184
6.424	94.4949
6.377	94.6631
6.33	94.739
6.284	94.8811
6.238	95.1189
6.194	95.5303
6.15	95.6062
6.106	95.1318
6.063	95.3279
6.021	95.3125
5.979	95.2937
5.938	95.3059
5.898	95.5046
5.858	95.7529
5.818	95.9324
5.779	96.123
5.741	96.2229
5.703	96.3115
5.666	96.4275
5.629	96.5281
5.592	96.6299
5.556	96.7019
5.521	96.7969
5.486	96.915
5.451	97.009
5.417	97.0979
5.383	97.196
5.35	97.2947
5.317	97.4011
5.285	97.4978
5.252	97.5945
5.221	97.6238
5.189	97.6326
5.158	97.6462
5.128	97.6296
5.097	97.6521
5.068	97.7126
5.038	97.7922
5.009	97.8533
4.98	97.9158
4.951	97.9363
4.923	97.9426
4.895	97.9697
4.868	97.9714
4.84	98.0134
4.814	98.0391
4.787	98.0749
4.76	98.1211
4.734	98.1658
4.709	98.2119
4.683	98.2126
4.658	98.2646
4.633	98.2978
4.608	98.3415
4.584	98.374
4.56	98.4182
4.536	98.4177
4.512	98.4475
4.488	98.4617
4.465	98.4665
4.442	98.5076
4.42	98.5203
4.397	98.553
4.375	98.5652
4.353	98.5906
4.331	98.5818
4.309	98.574
4.288	98.6081
4.267	98.6101
4.246	98.6057
4.225	98.6047
4.205	98.6189
4.184	98.6096
4.164	98.613
4.144	98.6247
4.124	98.6345
4.105	98.6716
4.085	98.6623
4.066	98.6706
4.047	98.6838
4.028	98.7278
4.009	98.7097
3.991	98.7322
3.973	98.739
3.954	98.7502
3.936	98.7449
3.918	98.7668
3.901	98.7375
3.883	98.7502
3.866	98.7146
3.849	98.7405
3.832	98.7014
3.815	98.7234
3.798	98.7248
3.781	98.7009
3.765	98.6912
3.748	98.6487
3.732	98.697
3.716	98.6716
3.7	98.6824
3.685	98.6819
3.669	98.6658
3.653	98.654
3.638	98.658
3.623	98.6584
3.608	98.676
3.593	98.6487
3.578	98.6584
3.563	98.6081
3.548	98.6238
3.534	98.5862
3.519	98.5569
3.505	98.4734
3.491	98.4924
3.477	98.4197
3.463	98.4158
3.449	98.344
3.435	98.3557
3.422	98.3127
3.408	98.2712
3.395	98.2888
3.382	98.3108
3.369	98.3083
3.355	98.2639
3.342	98.322
3.33	98.3108
3.317	98.3054
3.304	98.2576
3.292	98.2888
3.279	98.2385
3.267	98.2717
3.254	98.1975
3.242	98.199
3.23	98.1409
3.218	98.1565
3.206	98.1038
3.194	98.1228
3.182	98.072
3.171	98.094
3.159	98.0745
3.148	98.1291
3.136	98.1267
3.125	98.1872
3.114	98.1912
3.102	98.2898
3.091	98.2898
3.08	98.3425
3.069	98.4099
3.058	98.4011
3.048	98.4363
3.037	98.49
3.026	98.5544
3.016	98.6892
3.005	98.8904
2.995	99.1462
2.985	99.5369
2.974	99.8992
2.964	100.324
2.954	100.762
2.944	101.127
2.934	101.422
2.924	101.761
2.914	101.777
2.904	101.786
2.895	101.629
2.885	101.486
2.875	101.168
2.866	101.015
2.856	100.876
2.847	100.771
2.838	100.429
2.828	100.075
2.819	99.7312
2.81	99.5447
2.801	99.3572
2.792	99.2693
2.783	99.1247
2.774	98.8718
2.765	98.6482
2.756	98.6101
2.747	98.8513
2.739	98.9177
2.73	99.1492
2.721	99.2204
2.713	99.2927
2.704	99.0124
2.696	98.906
2.687	98.8318
2.679	98.8015
2.671	98.6833
2.663	98.6951
2.654	98.657
2.646	98.7009
2.638	98.5945
2.63	98.5818
2.622	98.5515
2.614	98.5622
2.606	98.5398
2.599	98.5945
2.591	98.4744
2.583	98.4294
2.575	98.3787
2.568	98.4568
2.56	98.4509
2.553	98.4851
2.545	98.2888
2.538	98.3884
2.53	98.406
2.523	98.3494
2.515	98.3337
2.508	98.2849
2.501	98.2205
2.494	98.2029
2.486	98.2068
2.479	98.1658
2.472	98.1482
2.465	98.0837
2.458	98.1736
2.451	98.1736
2.444	98.1247
2.437	98.1736
2.43	98.0642
2.424	98.1091
2.417	98.1208
2.41	97.9372
2.403	98.0525
2.397	97.9646
2.39	98.0115
2.384	98.0154
2.377	97.908
2.37	97.9392
2.364	97.9314
2.358	98.0349
2.351	97.949
2.345	97.9607
2.338	97.9216
2.332	97.9314
2.326	97.9548
2.32	97.9294
2.313	97.9001
2.307	97.8787
2.301	97.9021
2.295	97.9939
2.289	97.9294
2.283	97.9548
2.277	97.9939
2.271	97.9997
2.265	98.0642
2.259	98.0173
2.253	97.9451
2.247	97.9548
2.241	97.9548
2.236	98.0173
2.23	98.1111
2.224	98.1501
2.218	98.0935
2.213	98.0486
2.207	98.1892
2.201	98.2185
2.196	98.156
2.19	98.1501
2.185	98.1814
2.179	98.0642
2.174	98.2673
2.168	98.2341
2.163	98.2888
2.157	98.2224
2.152	98.3083
2.147	98.3083
2.141	98.3826
2.136	98.3044
2.131	98.3943
2.126	98.3904
2.12	98.2966
2.115	98.5271
2.11	98.4333
2.105	98.363
2.1	98.5622
2.095	98.4724
2.09	98.5701
2.085	98.4294
2.079	98.5974
