Name: Alunite (potassium alunite) KAl3(SO4)2(OH)6
Type: Mineral
Class: Sulfates
Particle Size: Fine (less than 75 Micrometers)
Sample No.: alunite.2
Owner: JHU
Wavelength Range: IR
Origin: Utah; Hunt and Salisbury Collection #295 B (purchased from
Description: The sample is slightly pink in color, and appears pure
Measurement: Bidirectional Reflectance
X Units: Wavelength (micrometers)
Y Units: Reflectance (percent)
wavelength	value
25.044	2.481
24.339	2.8848
23.672	2.5303
23.041	2.5713
22.442	2.6213
21.874	3.03
21.334	3.4722
20.82	3.2207
20.33	2.1409
19.863	2.4326
19.416	2.4224
18.99	2.1003
18.581	2.0857
18.19	2.4314
17.815	2.3982
17.455	2.2502
17.109	2.1741
16.777	2.5981
16.458	2.2258
16.15	1.9075
15.854	2.3799
15.568	2.1506
15.292	1.2761
15.027	1.5666
14.77	1.9426
14.521	2.3083
14.281	2.4448
14.049	2.6081
13.824	2.5879
13.607	2.0486
13.396	1.2742
13.191	0.8423
12.993	0.97
12.8	1.3184
12.614	1.6782
12.432	1.9795
12.256	2.3664
12.084	2.8227
11.918	3.144
11.755	3.4243
11.598	3.5591
11.444	3.6138
11.294	3.4741
11.149	3.4814
11.007	3.5613
10.868	3.7217
10.733	3.823
10.602	3.8162
10.473	3.8491
10.348	3.7866
10.225	3.4067
10.106	3.1296
9.989	2.8606
9.875	2.3948
9.763	1.6709
9.654	1.8769
9.547	1.9209
9.443	1.7983
9.341	2.0911
9.241	2.4517
9.143	2.5156
9.047	2.6099
8.954	2.7131
8.862	2.7666
8.772	2.7434
8.684	2.456
8.597	2.6143
8.513	2.6638
8.43	1.9695
8.348	1.6086
8.268	1.3276
8.19	1.1504
8.113	1.0684
8.037	1.1116
7.963	1.3293
7.891	1.7017
7.819	2.4128
7.749	2.7585
7.68	2.4856
7.613	2.2617
7.546	2.4604
7.481	2.8274
7.417	3.4736
7.353	4.03
7.291	4.2983
7.23	4.5845
7.17	4.7558
7.111	4.7407
7.053	4.491
6.996	4.4004
6.94	4.6094
6.885	4.8147
6.83	4.7807
6.777	4.605
6.724	4.6533
6.672	4.9578
6.621	5.2473
6.571	5.5727
6.521	5.9785
6.472	6.1821
6.424	6.2256
6.377	6
6.33	5.8125
6.284	5.6948
6.238	5.55
6.194	5.2507
6.15	4.9646
6.106	4.8154
6.063	4.7947
6.021	4.9309
5.979	5.0925
5.938	5.207
5.898	5.6206
5.858	6.4451
5.818	7.0569
5.779	7.5552
5.741	7.9958
5.703	8.3113
5.666	8.5407
5.629	8.7685
5.592	8.8782
5.556	8.958
5.521	9.1106
5.486	9.3913
5.451	9.8015
5.417	10.0825
5.383	10.2217
5.35	10.3034
5.317	10.3503
5.285	10.4341
5.252	10.5171
5.221	10.5884
5.189	10.6291
5.158	10.6631
5.128	10.7151
5.097	10.7597
5.068	10.7947
5.038	10.8269
5.009	10.8039
4.98	10.7383
4.951	10.6372
4.923	10.4446
4.895	10.0002
4.868	9.4885
4.84	8.8752
4.814	9.1062
4.787	8.1953
4.76	5.958
4.734	4.3467
4.709	4.5227
4.683	4.7305
4.658	4.9333
4.633	4.2268
4.608	3.6953
4.584	3.5715
4.56	4.0271
4.536	4.1308
4.512	4.1597
4.488	4.1894
4.465	4.5149
4.442	4.6584
4.42	4.874
4.397	4.9226
4.375	4.7036
4.353	4.8227
4.331	5.2522
4.309	6.0149
4.288	6.3276
4.267	6.5427
4.246	6.7798
4.225	7.0693
4.205	7.2256
4.184	7.2705
4.164	7.2241
4.144	7.175
4.124	7.1631
4.105	7.2107
4.085	7.259
4.066	7.3215
4.047	7.3843
4.028	7.4306
4.009	7.4714
3.991	7.4912
3.973	7.5212
3.954	7.5522
3.936	7.5725
3.918	7.5989
3.901	7.6321
3.883	7.5683
3.866	7.4516
3.849	7.5967
3.832	7.5722
3.815	7.5334
3.798	7.4739
3.781	7.3977
3.765	7.2768
3.748	7.1728
3.732	7.0386
3.716	6.9033
3.7	6.7358
3.685	6.5942
3.669	6.4248
3.653	6.2744
3.638	6.1086
3.623	5.9407
3.608	5.7629
3.593	5.5967
3.578	5.418
3.563	5.2671
3.548	5.1086
3.534	4.9592
3.519	4.7986
3.505	4.6391
3.491	4.5308
3.477	4.3884
3.463	4.2554
3.449	4.1289
3.435	3.9819
3.422	3.8508
3.408	3.7512
3.395	3.6506
3.382	3.5571
3.369	3.4568
3.355	3.3464
3.342	3.2483
3.33	3.1665
3.317	3.0803
3.304	3.0137
3.292	2.9531
3.279	2.908
3.267	2.8511
3.254	2.8064
3.242	2.7551
3.23	2.6941
3.218	2.6714
3.206	2.6318
3.194	2.6064
3.182	2.5747
3.171	2.529
3.159	2.4744
3.148	2.4487
3.136	2.3813
3.125	2.3184
3.114	2.3462
3.102	2.2537
3.091	2.1526
3.08	2.094
3.069	2.0911
3.058	2.1143
3.048	2.1289
3.037	2.1228
3.026	2.0513
3.016	1.9329
3.005	1.9453
2.995	1.8835
2.985	1.717
2.974	1.573
2.964	1.4717
2.954	1.3472
2.944	1.2473
2.934	1.2351
2.924	1.2007
2.914	1.0708
2.904	1.0015
2.895	0.8345
2.885	0.7046
2.875	0.6267
2.866	0.8762
2.856	0.4399
2.847	0.4041
2.838	0.499
2.828	0.6726
2.819	1.1138
2.81	1.5037
2.801	1.8728
2.792	2.2803
2.783	2.6777
2.774	3.154
2.765	4.2644
2.756	5.4573
2.747	6.0627
2.739	7.105
2.73	8.2983
2.721	9.0447
2.713	9.9902
2.704	10.7187
2.696	11.3144
2.687	11.2397
2.679	11.1811
2.671	11.5217
2.663	11.7841
2.654	12.2253
2.646	12.977
2.638	13.0085
2.63	12.7463
2.622	12.5659
2.614	12.4101
2.606	12.0656
2.599	12.0927
2.591	11.5276
2.583	11.1916
2.575	11.3039
2.568	11.2527
2.56	11.2031
2.553	11.4658
2.545	11.3281
2.538	10.9631
2.53	10.6831
2.523	9.675
2.515	8.7519
2.508	8.9614
2.501	10.1474
2.494	10.8462
2.486	11.6469
2.479	11.6567
2.472	11.0346
2.465	10.8867
2.458	11.4509
2.451	11.7578
2.444	11.6728
2.437	11.1616
2.43	10.8457
2.424	11.4282
2.417	11.9609
2.41	12.4023
2.403	12.5009
2.397	12.4936
2.39	12.8442
2.384	13.7065
2.377	14.5463
2.37	15.1528
2.364	15.4585
2.358	15.5783
2.351	15.5979
2.345	15.4609
2.338	15.1567
2.332	14.5766
2.326	13.9856
2.32	13.6818
2.313	14.2299
2.307	15.1799
2.301	15.812
2.295	16.0886
2.289	16.2365
2.283	16.3076
2.277	16.3481
2.271	16.4099
2.265	16.4135
2.259	16.4228
2.253	16.3925
2.247	16.3925
2.241	16.3107
2.236	16.2053
2.23	15.936
2.224	15.468
2.218	14.2431
2.213	12.7512
2.207	12.5063
2.201	13.4553
2.196	13.144
2.19	12.2444
2.185	11.7151
2.179	11.354
2.174	11.5757
2.168	11.2583
2.163	11.3857
2.157	11.2568
2.152	11.5937
2.147	12.0341
2.141	12.1943
2.136	12.4355
2.131	12.6994
2.126	13.0171
2.12	13.5139
2.115	14.0207
2.11	14.4467
2.105	14.7451
2.1	14.9975
2.095	15.2392
2.09	15.3586
2.085	15.3359
2.079	15.3781
