Name: Tremolite Ca2(Mg, Fe+2)5Si8O22(OH)2
Type: Mineral
Class: Silicates
Subclass: Inosilicates (Chain Silicates); (Amphibole Group)
Particle Size: Fine  (0 - 74  Micrometers)
Sample No.: tremol.1
Owner: JHU
Wavelength Range: IR
Origin: Balmat, New York, USA via Bruce Hemingway, USGS
Description: The sample consisted of 2-3 cm long x 1-2 cm wide mass
Measurement: Bidirectional reflectance
X Units: Wavelength (micrometers)
Y Units: Reflectance (percent)
wavelength	value
25.0442	2.7373
24.3388	2.7285
23.6719	3.0605
23.0407	3.1868
22.4422	3.7978
21.8741	4.2512
21.334	3.7764
20.8199	3.8027
20.33	3.8508
19.8627	3.7309
19.4163	3.9204
18.9896	4.2285
18.5812	4.7231
18.19	4.438
17.815	5.1577
17.4551	5.2441
17.1094	4.1558
16.7772	2.8496
16.4576	2.1904
16.15	2.3652
15.8537	2.4753
15.568	1.9119
15.2925	1.9165
15.0265	1.696
14.7697	2.0896
14.5214	2.3682
14.2814	2.4712
14.0492	2.7146
13.8244	2.53
13.6067	2.5459
13.3957	2.3704
13.1912	2.4629
12.9929	2.8323
12.8004	3.0129
12.6135	3.8987
12.432	4.4736
12.2557	4.7966
12.0843	4.7844
11.9176	4.7121
11.7555	4.3
11.5977	3.8242
11.444	3.5161
11.2944	3.0449
11.1487	2.5903
11.0067	2.3308
10.8682	2.2725
10.7332	1.8413
10.6015	2.406
10.473	3.0991
10.3476	3.4119
10.2251	3.7446
10.1056	4.1899
9.98873	3.9204
9.87458	3.5808
9.763	2.7922
9.65392	2.7065
9.54724	2.7432
9.44291	2.9648
9.34082	3.3579
9.24091	3.97
9.14312	4.1028
9.04739	3.8335
8.95363	3.7246
8.8618	3.9001
8.77183	5.0459
8.68368	5.741
8.59727	5.4438
8.51257	4.3496
8.42951	3.1204
8.34807	2.1472
8.26819	1.7407
8.18981	1.7783
8.11292	2.1147
8.03745	2.626
7.96337	3.3157
7.89064	4.0598
7.81924	4.6323
7.74911	4.9875
7.68023	5.4587
7.61256	5.9573
7.54608	6.1977
7.48074	6.0957
7.41653	6.2478
7.35341	6.458
7.29136	6.8381
7.23034	7.2619
7.17033	7.6572
7.11132	8.0124
7.05327	8.352
6.99616	8.6355
6.93996	8.9397
6.88467	9.1482
6.83024	9.2134
6.77667	9.4507
6.72393	9.6677
6.67201	9.8606
6.62089	10.2456
6.57054	10.7348
6.52095	10.874
6.4721	10.6259
6.42398	10.3095
6.37657	9.8625
6.32986	9.2082
6.28382	8.4299
6.23845	7.8867
6.19373	7.6299
6.14965	7.7705
6.10619	8.0449
6.06334	8.5071
6.02109	9.1247
5.97942	9.0888
5.93832	8.4909
5.89778	8.3589
5.8578	8.812
5.81835	9.2326
5.77943	9.4885
5.74103	9.8113
5.70314	10.0031
5.66574	9.8896
5.62883	9.9389
5.5924	10.1723
5.55644	10.4231
5.52093	10.6069
5.48588	10.5188
5.45127	10.2702
5.41709	10.7436
5.38334	10.9577
5.35	10.7373
5.31708	10.521
5.28456	11.0278
5.25243	11.1728
5.2207	11.7417
5.18934	12.0551
5.15836	11.3269
5.12775	10.7822
5.09749	11.1692
5.0676	11.4646
5.03805	11.7085
5.00884	12.0578
4.97998	12.4782
4.95144	12.8596
4.92322	13.2478
4.89533	13.602
4.86775	13.697
4.84048	13.7902
4.81351	13.7268
4.78684	13.8708
4.76047	14.5017
4.73439	15.1169
4.70859	15.4016
4.68306	15.6816
4.65782	16.1359
4.63284	16.5927
4.60814	17.0576
4.58369	17.3601
4.5595	17.6667
4.53557	18.0446
4.51188	18.3142
4.48845	18.5964
4.46525	18.8107
4.44229	18.9511
4.41957	19.0488
4.39708	19.1162
4.37481	19.1694
4.35277	19.1911
4.33096	19.2023
4.30935	19.2214
4.28797	19.2543
4.26679	19.3149
4.24583	19.3444
4.22506	19.3796
4.2045	19.414
4.18414	19.4252
4.16398	19.4401
4.14401	19.4704
4.12423	19.4948
4.10464	19.5297
4.08523	19.5864
4.066	19.6196
4.04696	19.664
4.02809	19.6799
4.0094	19.7089
3.99088	19.7285
3.97253	19.7492
3.95435	19.7797
3.93634	19.8183
3.91848	19.8679
3.90079	19.8984
3.88326	19.9226
3.86589	19.9257
3.84867	19.935
3.8316	19.9374
3.81468	19.9541
3.79791	19.9719
3.78129	19.9794
3.76482	19.9726
3.74848	19.9821
3.73229	19.9858
3.71624	19.9877
3.70032	19.9414
3.68454	19.9257
3.6689	19.9152
3.65338	19.8959
3.638	19.9196
3.62275	19.8979
3.60762	19.9025
3.59262	19.8767
3.57775	19.8496
3.56299	19.8242
3.54836	19.7597
3.53385	19.6799
3.51945	19.5344
3.50517	19.2082
3.49101	19.3449
3.47696	19.3881
3.46303	19.383
3.4492	19.3193
3.43549	19.1672
3.42188	18.8046
3.40838	18.7265
3.39499	18.8156
3.38171	18.6928
3.36852	18.6535
3.35544	18.4902
3.34246	18.3383
3.32958	18.6865
3.3168	18.6508
3.30411	18.6318
3.29153	18.8784
3.27903	19.2534
3.26664	19.3164
3.25433	19.3
3.24212	19.2875
3.23	19.2062
3.21797	19.1591
3.20603	19.0869
3.19418	18.9406
3.18241	18.6921
3.17074	18.5112
3.15914	18.6848
3.14763	18.8217
3.13621	18.8491
3.12487	18.8215
3.11361	18.7736
3.10243	18.7534
3.09133	18.7104
3.0803	18.6665
3.06936	18.6147
3.0585	18.569
3.04771	18.5236
3.037	18.4809
3.02636	18.4567
3.0158	18.3867
3.00531	18.2968
2.99489	18.2348
2.98454	18.121
2.97427	17.9877
2.96407	18.0043
2.95393	18.1022
2.94387	18.1718
2.93387	18.2055
2.92394	18.2246
2.91408	18.2248
2.90429	18.2207
2.89456	18.2236
2.88489	18.2434
2.87529	18.2363
2.86576	18.2558
2.85628	18.289
2.84687	18.3371
2.83752	18.3754
2.82823	18.3017
2.81901	18.435
2.80984	18.541
2.80073	18.6152
2.79168	18.6438
2.78269	18.6567
2.77376	18.5478
2.76488	18.2548
2.75606	18.5952
2.7473	18.7495
2.73859	17.456
2.72994	11.2456
2.72134	3.5879
2.7128	16.976
2.70431	18.497
2.69587	17.9018
2.68748	19.2016
2.67915	20.4072
2.67087	20.8491
2.66264	21.1916
2.65446	21.2082
2.64633	21.1508
2.63825	21.0388
2.63021	21.0131
2.62223	20.9577
2.6143	20.9689
2.60641	20.7853
2.59857	20.8098
2.59078	20.7578
2.58304	20.8129
2.57534	20.6923
2.56768	20.4565
2.56008	20.4052
2.55251	20.6027
2.54499	20.7695
2.53752	20.81
2.53009	20.8256
2.5227	20.7062
2.51536	20.4025
2.50806	20.5258
2.5008	20.4257
2.49358	20.2778
2.4864	20.2805
2.47927	20.1223
2.47218	20.143
2.46512	20.0039
2.45811	19.9348
2.45114	20.3029
2.4442	20.1083
2.43731	20.3657
2.43045	20.6806
2.42363	20.6293
2.41685	20.2714
2.41011	20.5803
2.40341	20.5939
2.39674	19.5656
2.39011	18.5234
2.38352	17.9719
2.37696	19.0334
2.37044	19.9621
2.36395	20.4912
2.35751	20.7922
2.35109	20.9094
2.34471	21.166
2.33836	21.2004
2.33205	20.8732
2.32578	19.6347
2.31953	17.5068
2.31332	17.0332
2.30714	17.8486
2.301	17.6054
2.29489	17.5981
2.28881	19.0522
2.28276	19.5278
2.27675	20.0717
2.27076	20.5312
2.26481	21.0659
2.25889	21.5126
2.253	21.6811
2.24714	21.7407
2.24131	21.7973
2.23551	21.9326
2.22974	22.0097
2.224	21.958
2.21829	22.0278
2.21261	22.0644
2.20696	22.0004
2.20134	22.0551
2.19574	22.0654
2.19018	22.1494
2.18464	22.0966
2.17913	22.1137
2.17365	22.166
2.16819	22.2441
2.16277	22.3203
2.15737	22.2329
2.15199	22.1957
2.14665	22.1059
2.14133	22.2329
2.13603	22.2314
2.13077	22.083
2.12552	22.2778
2.12031	22.1943
2.11512	22.2465
2.10995	22.0571
2.10481	22.4789
2.0997	22.5478
2.09461	22.6586
2.08954	22.7656
2.0845	22.665
2.07948	22.8017
