Name: Enstatite Mg2Si2O6
Type: Mineral
Class: Silicates
Subclass: Inosilicates (Chain Silicates) (Pyroxene Group)
Particle Size: Solid (cleavage face)
Sample No.: enstatite.1
Owner: JHU
Wavelength Range: IR
Origin: Sample from Frank Smith Mine, near Barkly Wes, South
Description: Sample was a single light green piece, apparently part of
Measurement: Bidirectional reflectance
X Units: Wavelength (micrometers)
Y Units: Reflectance (percent)
wavelength	value
25.0442	29.2382
24.3388	27.6171
23.6719	28.915
23.0407	33.3554
22.4422	37.81
21.8741	41.1366
21.334	43.8768
20.8199	46.4972
20.33	49.245
19.8627	53.245
19.4163	54.1947
18.9896	45.1576
18.5812	38.737
18.19	35.9794
17.815	27.8322
17.4551	28.9218
17.1094	27.5116
16.7772	24.3481
16.4576	22.8359
16.15	18.6171
15.8537	16.5981
15.568	15.7631
15.2925	16.0327
15.0265	14.9206
14.7697	14.9956
14.5214	15.3698
14.2814	13.6464
14.0492	12.5979
13.8244	13.3945
13.6067	10.9709
13.3957	11.5556
13.1912	12.0595
12.9929	12.7107
12.8004	13.6535
12.6135	14.3991
12.432	15.0385
12.2557	16.0625
12.0843	17.0175
11.9176	18.5085
11.7555	20.654
11.5977	22.5832
11.444	24.3727
11.2944	22.8393
11.1487	21.1855
11.0067	19.5507
10.8682	22.8388
10.7332	26.1818
10.6015	25.9741
10.473	27.0402
10.3476	27.0065
10.2251	28.1606
10.1056	27.8823
9.98873	29.4374
9.87458	34.2814
9.763	36.3227
9.65392	36.2445
9.54724	40.3681
9.44291	39.3297
9.34082	40.0211
9.24091	39.6876
9.14312	39.0031
9.04739	38.9271
8.95363	39.0644
8.8618	36.1393
8.77183	33.9347
8.68368	32.9535
8.59727	23.2453
8.51257	12.4721
8.42951	4.9641
8.34807	3.4031
8.26819	3.9763
8.18981	4.5203
8.11292	5.1306
8.03745	5.5947
7.96337	6.0019
7.89064	6.3808
7.81924	6.7744
7.74911	7.1079
7.68023	7.3994
7.61256	7.6614
7.54608	7.8655
7.48074	8.0644
7.41653	8.2478
7.35341	8.4101
7.29136	8.5718
7.23034	8.7468
7.17033	8.9026
7.11132	9.1196
7.05327	9.2102
6.99616	9.2805
6.93996	9.4201
6.88467	9.497
6.83024	9.5991
6.77667	9.7065
6.72393	9.761
6.67201	9.8047
6.62089	9.8576
6.57054	9.864
6.52095	9.9084
6.4721	9.8796
6.42398	9.8293
6.37657	9.8291
6.32986	9.7917
6.28382	9.77
6.23845	9.7663
6.19373	9.7417
6.14965	9.7546
6.10619	9.8025
6.06334	9.9226
6.02109	9.9861
5.97942	10.0727
5.93832	10.1672
5.89778	10.3254
5.8578	10.4448
5.81835	10.4707
5.77943	10.6401
5.74103	10.7868
5.70314	10.9123
5.66574	11.0041
5.62883	11.0627
5.5924	11.1506
5.55644	11.2685
5.52093	11.3833
5.48588	11.4687
5.45127	11.5405
5.41709	11.5905
5.38334	11.6736
5.35	11.7197
5.31708	11.7671
5.28456	11.7666
5.25243	11.7563
5.2207	11.7519
5.18934	11.7331
5.15836	11.6858
5.12775	11.6889
5.09749	11.7275
5.0676	11.7737
5.03805	11.834
5.00884	11.8913
4.97998	11.9216
4.95144	11.9248
4.92322	11.9094
4.89533	11.9167
4.86775	11.8921
4.84048	11.8567
4.81351	11.8913
4.78684	11.9594
4.76047	12.0337
4.73439	12.1413
4.70859	12.2265
4.68306	12.3073
4.65782	12.3645
4.63284	12.4699
4.60814	12.6733
4.58369	12.9194
4.5595	13.0986
4.53557	13.2988
4.51188	13.4738
4.48845	13.6003
4.46525	13.6452
4.44229	13.6997
4.41957	13.7238
4.39708	13.7563
4.37481	13.7915
4.35277	13.8159
4.33096	13.8271
4.30935	13.8667
4.28797	13.9001
4.26679	13.9392
4.24583	13.9785
4.22506	13.9922
4.2045	14.0402
4.18414	14.0766
4.16398	14.1037
4.14401	14.1284
4.12423	14.1711
4.10464	14.2085
4.08523	14.2526
4.066	14.2754
4.04696	14.2981
4.02809	14.3371
4.0094	14.3581
3.99088	14.3662
3.97253	14.3842
3.95435	14.4187
3.93634	14.4343
3.91848	14.4563
3.90079	14.468
3.88326	14.489
3.86589	14.4751
3.84867	14.4602
3.8316	14.4782
3.81468	14.4475
3.79791	14.4663
3.78129	14.4631
3.76482	14.4516
3.74848	14.4382
3.73229	14.4184
3.71624	14.3938
3.70032	14.3772
3.68454	14.3659
3.6689	14.3359
3.65338	14.3081
3.638	14.3029
3.62275	14.2712
3.60762	14.2531
3.59262	14.2187
3.57775	14.1897
3.56299	14.1421
3.54836	14.0766
3.53385	13.9975
3.51945	13.8845
3.50517	13.7258
3.49101	13.7651
3.47696	13.7448
3.46303	13.738
3.4492	13.6792
3.43549	13.5883
3.42188	13.445
3.40838	13.4013
3.39499	13.4492
3.38171	13.4079
3.36852	13.4204
3.35544	13.3938
3.34246	13.3596
3.32958	13.2917
3.3168	13.2329
3.30411	13.1516
3.29153	13.093
3.27903	13.02
3.26664	12.9448
3.25433	12.8672
3.24212	12.7959
3.23	12.7448
3.21797	12.6709
3.20603	12.5918
3.19418	12.5344
3.18241	12.4646
3.17074	12.364
3.15914	12.2949
3.14763	12.2319
3.13621	12.1347
3.12487	12.091
3.11361	12.007
3.10243	11.9702
3.09133	11.9326
3.0803	11.8965
3.06936	11.8686
3.0585	11.8386
3.04771	11.8281
3.037	11.7988
3.02636	11.7802
3.0158	11.7309
3.00531	11.6701
2.99489	11.6162
2.98454	11.6137
2.97427	11.5827
2.96407	11.5481
2.95393	11.5205
2.94387	11.4951
2.93387	11.4555
2.92394	11.4331
2.91408	11.4487
2.90429	11.4492
2.89456	11.4436
2.88489	11.4436
2.87529	11.4297
2.86576	11.4221
2.85628	11.4057
2.84687	11.3759
2.83752	11.3271
2.82823	11.2759
2.81901	11.2002
2.80984	11.1357
2.80073	11.0698
2.79168	11.0395
2.78269	11.0024
2.77376	10.9648
2.76488	10.914
2.75606	10.8506
2.7473	10.7719
2.73859	10.6157
2.72994	10.4531
2.72134	10.2363
2.7128	9.9887
2.70431	10.1313
2.69587	11.2412
2.68748	13.7053
2.67915	15.4751
2.67087	16.0571
2.66264	16.3427
2.65446	16.4323
2.64633	16.5014
2.63825	16.6064
2.63021	16.5808
2.62223	16.6543
2.6143	16.645
2.60641	16.6149
2.59857	16.6601
2.59078	16.6408
2.58304	16.6181
2.57534	16.6543
2.56768	16.6438
2.56008	16.5971
2.55251	16.6201
2.54499	16.6516
2.53752	16.6806
2.53009	16.6428
2.5227	16.6604
2.51536	16.623
2.50806	16.6535
2.5008	16.6796
2.49358	16.7006
2.4864	16.729
2.47927	16.7426
2.47218	16.7871
2.46512	16.7714
2.45811	16.8183
2.45114	16.8195
2.4442	16.8154
2.43731	16.8076
2.43045	16.7973
2.42363	16.8222
2.41685	16.8383
2.41011	16.8593
2.40341	16.8466
2.39674	16.7646
2.39011	16.7465
2.38352	16.7805
2.37696	16.7815
2.37044	16.8642
2.36395	16.8674
2.35751	16.8344
2.35109	16.8088
2.34471	16.7646
2.33836	16.5908
2.33205	16.5561
2.32578	16.4555
2.31953	16.4404
2.31332	16.4482
2.30714	16.6044
2.301	16.7094
2.29489	16.7446
2.28881	16.7509
2.28276	16.8344
2.27675	16.9043
2.27076	16.894
2.26481	16.9746
2.25889	17.0302
2.253	17.0068
2.24714	16.9946
2.24131	17.0078
2.23551	17.0512
2.22974	17.0429
2.224	17.0527
2.21829	17.0805
2.21261	17.102
2.20696	17.0625
2.20134	17.0976
2.19574	17.0937
2.19018	17.1005
2.18464	17.0922
2.17913	17.0844
2.17365	17.1269
2.16819	17.1709
2.16277	17.0981
2.15737	17.1469
2.15199	17.0644
2.14665	17.0371
2.14133	17.0532
2.13603	17.018
2.13077	16.9853
2.12552	17.0761
2.12031	17.0708
2.11512	17.0004
2.10995	17.0283
2.10481	16.9892
2.0997	16.999
2.09461	16.9492
2.08954	17.0219
2.0845	16.9941
2.07948	16.9726
