Name: La Criolla
Type: Stony Meteorites
Class: Ordinary Chondrite
Subclass: L6
Particle Size: 0-75 micrometers
Sample No.: La Criolla
Owner: JHU
Origin: Meteorite seen to fall in Argentina in 198?.  Smithsonian sample No.
Description: None.
Measurement: Bidirectional reflectance
X Units: Wavelength (micrometers)
Y Units: Reflectance (percent)
wavelength	value
25.044	1.2734
24.339	1.5605
23.672	1.2097
23.041	1.0198
22.442	0.9841
21.874	0.8318
21.334	0.8208
20.82	0.8379
20.33	1.0405
19.863	1.1194
19.416	1.2424
18.99	1.2095
18.581	1.2329
18.19	1.1711
17.815	1.0149
17.455	0.8975
17.109	0.7712
16.777	0.7649
16.458	0.7439
16.15	0.7249
15.854	0.6003
15.568	0.551
15.292	0.5073
15.027	0.55
14.77	0.613
14.521	0.7146
14.281	0.731
14.049	0.8147
13.824	0.834
13.607	0.865
13.396	0.9612
13.191	1.0701
12.993	1.0811
12.8	1.0923
12.614	1.0635
12.432	1.0356
12.256	0.9368
12.084	0.886
11.918	0.854
11.755	0.8921
11.598	1.0581
11.444	1.3594
11.294	1.5984
11.149	1.5701
11.007	1.5312
10.868	1.6399
10.733	1.717
10.602	1.6594
10.473	1.3811
10.348	1.2424
10.225	1.373
10.106	1.2676
9.9887	1.1143
9.8746	1.0247
9.763	1.0207
9.6539	1.1672
9.5472	1.2898
9.4429	1.3682
9.3408	1.2756
9.2409	1.1179
9.1431	1.053
9.0474	1.0696
8.9536	1.0278
8.8618	1.0237
8.7718	0.9868
8.6837	0.9311
8.5973	0.8928
8.5126	0.9097
8.4295	1.001
8.3481	1.1084
8.2682	1.2314
8.1898	1.3542
8.1129	1.5007
8.0374	1.6572
7.9634	1.7556
7.8906	1.835
7.8192	1.9202
7.7491	2.0002
7.6802	2.0708
7.6126	2.1086
7.5461	2.188
7.4807	2.2881
7.4165	2.3957
7.3534	2.5007
7.2914	2.5898
7.2303	2.6435
7.1703	2.7136
7.1113	2.7473
7.0533	2.823
6.9962	2.8928
6.94	2.9587
6.8847	2.9944
6.8302	3.0434
6.7767	3.0915
6.7239	3.1426
6.672	3.1455
6.6209	3.1218
6.5705	3.1418
6.5209	3.1553
6.4721	3.1494
6.424	3.1235
6.3766	3.0864
6.3299	3.0383
6.2838	3.0227
6.2385	3.0332
6.1937	3.0635
6.1496	3.085
6.1062	3.0283
6.0633	2.855
6.0211	2.6882
5.9794	2.7314
5.9383	2.8572
5.8978	2.9412
5.8578	2.9961
5.8184	3.0415
5.7794	3.062
5.741	3.0037
5.7031	2.8789
5.6657	2.7737
5.6288	2.7891
5.5924	2.9426
5.5564	3.0784
5.5209	3.1377
5.4859	3.1348
5.4513	3.1748
5.4171	3.2495
5.3833	3.3423
5.35	3.408
5.3171	3.417
5.2846	3.3987
5.2524	3.3965
5.2207	3.408
5.1893	3.4253
5.1584	3.4585
5.1277	3.5413
5.0975	3.6113
5.0676	3.654
5.038	3.7029
5.0088	3.7317
4.98	3.761
4.9514	3.8252
4.9232	3.9358
4.8953	4.0483
4.8678	4.1208
4.8405	4.1846
4.8135	4.2495
4.7868	4.3169
4.7605	4.3838
4.7344	4.4114
4.7086	4.4587
4.6831	4.5024
4.6578	4.5576
4.6328	4.6255
4.6081	4.6907
4.5837	4.7392
4.5595	4.7927
4.5356	4.8257
4.5119	4.8508
4.4884	4.8735
4.4652	4.9009
4.4423	4.9224
4.4196	4.9495
4.3971	4.967
4.3748	4.9844
4.3528	4.9946
4.331	5.0088
4.3094	5.0203
4.288	5.0261
4.2668	5.041
4.2458	5.0618
4.2251	5.0786
4.2045	5.0786
4.1841	5.0974
4.164	5.1033
4.144	5.1055
4.1242	5.1138
4.1046	5.1096
4.0852	5.1245
4.066	5.1348
4.047	5.147
4.0281	5.1443
4.0094	5.1492
3.9909	5.154
3.9725	5.1662
3.9544	5.1741
3.9363	5.1643
3.9185	5.1836
3.9008	5.1951
3.8833	5.2029
3.8659	5.1955
3.8487	5.199
3.8316	5.1936
3.8147	5.187
3.7979	5.1904
3.7813	5.1973
3.7648	5.1963
3.7485	5.188
3.7323	5.1987
3.7162	5.1872
3.7003	5.178
3.6845	5.1765
3.6689	5.1599
3.6534	5.1648
3.638	5.1702
3.6227	5.1804
3.6076	5.1638
3.5926	5.1553
3.5777	5.1533
3.563	5.1299
3.5484	5.1311
3.5338	5.1235
3.5195	5.1037
3.5052	5.092
3.491	5.0803
3.477	5.0871
3.463	5.0864
3.4492	5.0637
3.4355	5.043
3.4219	5.0224
3.4084	5.0046
3.395	5.0146
3.3817	5.0151
3.3685	4.9997
3.3554	5.0132
3.3425	5.0141
3.3296	5.0093
3.3168	4.9778
3.3041	4.9695
3.2915	4.9758
3.279	4.9521
3.2666	4.9448
3.2543	4.928
3.2421	4.9165
3.23	4.9104
3.218	4.8926
3.206	4.8708
3.1942	4.854
3.1824	4.8545
3.1707	4.8318
3.1591	4.8081
3.1476	4.8064
3.1362	4.7788
3.1249	4.7827
3.1136	4.7759
3.1024	4.7651
3.0913	4.7561
3.0803	4.7568
3.0694	4.7493
3.0585	4.7446
3.0477	4.7327
3.037	4.7366
3.0264	4.7192
3.0158	4.7317
3.0053	4.7175
2.9949	4.7031
2.9845	4.709
2.9743	4.7048
2.9641	4.6936
2.9539	4.6953
2.9439	4.6909
2.9339	4.6897
2.9239	4.7102
2.9141	4.7121
2.9043	4.7073
2.8946	4.727
2.8849	4.7292
2.8753	4.7412
2.8658	4.7593
2.8563	4.7754
2.8469	4.7871
2.8375	4.8025
2.8282	4.8467
2.819	4.8703
2.8098	4.8909
2.8007	4.9131
2.7917	4.9485
2.7827	4.9753
2.7738	5.0085
2.7649	5.0461
2.7561	5.0962
2.7473	5.1291
2.7386	5.1684
2.7299	5.1997
2.7213	5.2107
2.7128	5.2405
2.7043	5.2734
2.6959	5.2761
2.6875	5.2825
2.6791	5.3032
2.6709	5.3232
2.6626	5.331
2.6545	5.3315
2.6463	5.3242
2.6382	5.322
2.6302	5.3008
2.6222	5.3274
2.6143	5.3122
2.6064	5.3166
2.5986	5.2971
2.5908	5.2922
2.583	5.3049
2.5753	5.2847
2.5677	5.2903
2.5601	5.2839
2.5525	5.2793
2.545	5.291
2.5375	5.281
2.5301	5.2795
2.5227	5.2742
2.5154	5.2786
2.5081	5.2622
2.5008	5.2676
2.4936	5.2561
2.4864	5.2427
2.4793	5.2632
2.4722	5.2468
2.4651	5.2456
2.4581	5.2517
2.4511	5.2307
2.4442	5.2439
2.4373	5.2615
2.4305	5.2585
2.4236	5.2466
2.4169	5.25
2.4101	5.2493
2.4034	5.2207
2.3967	5.258
2.3901	5.2412
2.3835	5.237
2.377	5.2214
2.3704	5.206
2.364	5.2427
2.3575	5.2131
2.3511	5.2331
2.3447	5.2312
2.3384	5.207
2.3321	5.2112
2.3258	5.2139
2.3195	5.1892
2.3133	5.2207
2.3071	5.2119
2.301	5.228
2.2949	5.2224
2.2888	5.2361
2.2828	5.2097
2.2767	5.2231
2.2708	5.2441
2.2648	5.2134
2.2589	5.1973
2.253	5.2119
2.2471	5.2129
2.2413	5.1975
2.2355	5.1965
2.2297	5.1946
2.224	5.2187
2.2183	5.1936
2.2126	5.189
2.207	5.1675
2.2013	5.1767
2.1957	5.1941
2.1902	5.1477
2.1846	5.197
2.1791	5.146
2.1736	5.1533
2.1682	5.1474
2.1628	5.1665
2.1574	5.1455
2.152	5.1169
2.1466	5.1355
2.1413	5.1467
2.136	5.1172
2.1308	5.1301
2.1255	5.0889
2.1203	5.0974
2.1151	5.0744
2.11	5.0896
2.1048	5.1081
2.0997	5.0828
2.0946	5.0845
2.0895	5.0774
2.0845	5.0339
2.0795	5.0791
