Name: Grossular Ca3Al2(Si04)3
Type: Mineral
Class: Silicates
Subclass: Nesosilicates (Isolated Tetrahedra); Garnet Group
Particle Size: Fine  (Less than 2 Micrometers)
Sample No.: grossul.2
Owner: JHU
Wavelength Range: IR
Origin: Sample from Pear Gillis Farm, Beach Glen, Buncombe Co.,
Description: The sample was a spherical cluster of small crystals
Measurement: Transmission
X Units: Wavelength (micrometers)
Y Units: Transmittance (percent)
wavelength	value
25.0442	48.9061
24.3388	52.5819
23.6719	40.6366
23.0407	25.1972
22.4422	14.6757
21.8741	16.0332
21.334	15.7519
20.8199	21.0078
20.33	29.8691
19.8627	34.5243
19.4163	47.6151
18.9896	52.2313
18.5812	32.703
18.19	40.4892
17.815	60.2664
17.4551	69.786
17.1094	74.993
16.7772	77.7586
16.4576	72.3494
16.15	68.9744
15.8537	81.9529
15.568	84.367
15.2925	86.4002
15.0265	87.6414
14.7697	88.031
14.5214	88.1228
14.2814	87.7009
14.0492	86.4265
13.8244	85.4495
13.6067	83.9588
13.3957	82.0037
13.1912	77.9549
12.9929	74.9022
12.8004	70.2816
12.6135	62.8436
12.432	50.8749
12.2557	37.2211
12.0843	23.8251
11.9176	14.289
11.7555	14.0781
11.5977	12.7387
11.444	23.6386
11.2944	37.5648
11.1487	30.1796
11.0067	10.7446
10.8682	10.9048
10.7332	17.1899
10.6015	20.0175
10.473	22.246
10.3476	33.2563
10.2251	45.452
10.1056	52.8768
9.98873	56.411
9.87458	58.9081
9.763	60.8651
9.65392	61.7777
9.54724	63.4442
9.44291	65.4979
9.34082	67.8475
9.24091	69.0862
9.14312	70.2518
9.04739	71.6297
8.95363	72.6629
8.8618	73.7869
8.77183	75.7273
8.68368	78.6624
8.59727	81.7029
8.51257	83.8806
8.42951	85.9883
8.34807	87.8203
8.26819	89.448
8.18981	90.74
8.11292	91.5535
8.03745	92.1631
7.96337	92.8684
7.89064	93.3367
7.81924	93.7019
7.74911	93.8689
7.68023	93.9763
7.61256	94.1985
7.54608	94.3555
7.48074	94.3584
7.41653	94.303
7.35341	94.2029
7.29136	94.0701
7.23034	93.5088
7.17033	93.7
7.11132	93.3503
7.05327	92.7022
6.99616	92.7253
6.93996	93.1013
6.88467	93.4443
6.83024	93.5615
6.77667	93.7918
6.72393	94.0085
6.67201	94.3225
6.62089	94.5762
6.57054	94.9316
6.52095	95.1248
6.4721	95.3965
6.42398	95.55
6.37657	95.6272
6.32986	95.6213
6.28382	95.5847
6.23845	95.4036
6.19373	94.8652
6.14965	93.9883
6.10619	93.7461
6.06334	94.0098
6.02109	94.8992
5.97942	95.9395
5.93832	95.6912
5.89778	95.5251
5.8578	95.6885
5.81835	95.9714
5.77943	96.1494
5.74103	96.3945
5.70314	96.5066
5.66574	96.5857
5.62883	96.5886
5.5924	96.6328
5.55644	96.5478
5.52093	96.6052
5.48588	96.6133
5.45127	96.6716
5.41709	96.7607
5.38334	96.7803
5.35	96.8125
5.31708	96.8767
5.28456	96.8738
5.25243	96.9172
5.2207	97.0068
5.18934	96.958
5.15836	96.9658
5.12775	96.905
5.09749	96.8367
5.0676	96.7256
5.03805	96.7097
5.00884	96.6799
4.97998	96.6755
4.95144	96.5613
4.92322	96.4983
4.89533	96.47
4.86775	96.4202
4.84048	96.3816
4.81351	96.3293
4.78684	96.3284
4.76047	96.2224
4.73439	96.1736
4.70859	96.1135
4.68306	96.1101
4.65782	96.0193
4.63284	96.031
4.60814	96.1282
4.58369	95.9607
4.5595	95.8655
4.53557	95.844
4.51188	95.738
4.48845	95.6936
4.46525	95.5994
4.44229	95.512
4.41957	95.4475
4.39708	95.3889
4.37481	95.3708
4.35277	95.2766
4.33096	95.2542
4.30935	95.0764
4.28797	95.0608
4.26679	94.95
4.24583	94.9304
4.22506	94.7937
4.2045	94.7459
4.18414	94.6707
4.16398	94.6101
4.14401	94.5227
4.12423	94.4578
4.10464	94.3738
4.08523	94.3123
4.066	94.2664
4.04696	94.2156
4.02809	94.0369
4.0094	93.905
3.99088	93.7581
3.97253	93.6423
3.95435	93.6585
3.93634	93.6394
3.91848	93.592
3.90079	93.4451
3.88326	93.385
3.86589	93.2048
3.84867	93.2
3.8316	93.0828
3.81468	93.0017
3.79791	92.9109
3.78129	92.8152
3.76482	92.6545
3.74848	92.6804
3.73229	92.5276
3.71624	92.322
3.70032	92.2019
3.68454	92.1116
3.6689	91.949
3.65338	91.8284
3.638	91.7566
3.62275	91.6345
3.60762	91.4983
3.59262	91.3967
3.57775	91.2854
3.56299	91.1658
3.54836	90.989
3.53385	90.8577
3.51945	90.7483
3.50517	90.6902
3.49101	90.4846
3.47696	90.2839
3.46303	90.2073
3.4492	90.1052
3.43549	90.0193
3.42188	89.9275
3.40838	89.6599
3.39499	89.5198
3.38171	89.4256
3.36852	89.4353
3.35544	89.2009
3.34246	89.0628
3.32958	88.9099
3.3168	88.8694
3.30411	88.7459
3.29153	88.5681
3.27903	88.4041
3.26664	88.2986
3.25433	88.1189
3.24212	87.992
3.23	87.7947
3.21797	87.7127
3.20603	87.5764
3.19418	87.3152
3.18241	87.1443
3.17074	86.9109
3.15914	86.6824
3.14763	86.4002
3.13621	86.1843
3.12487	85.9744
3.11361	85.6912
3.10243	85.3103
3.09133	84.8914
3.0803	84.5203
3.06936	84.2937
3.0585	83.8806
3.04771	83.5828
3.037	83.1961
3.02636	82.865
3.0158	82.4021
3.00531	81.6971
2.99489	81.0281
2.98454	80.2976
2.97427	79.4412
2.96407	78.8152
2.95393	78.2986
2.94387	77.7693
2.93387	77.2947
2.92394	77.0311
2.91408	76.9119
2.90429	76.9217
2.89456	76.9353
2.88489	76.9998
2.87529	77.0115
2.86576	76.9969
2.85628	77.2469
2.84687	77.4568
2.83752	77.6912
2.82823	78.0711
2.81901	78.575
2.80984	78.9998
2.80073	79.368
2.79168	79.865
2.78269	80.2928
2.77376	80.7654
2.76488	81.4568
2.75606	82.0945
2.7473	82.1873
2.73859	82.7439
2.72994	82.9021
2.72134	82.7439
2.7128	82.9109
2.70431	83.0789
2.69587	83.2185
2.68748	83.1297
2.67915	83.117
2.67087	82.989
2.66264	82.7703
2.65446	82.739
2.64633	82.4998
2.63825	82.4529
2.63021	82.2547
2.62223	82.0789
2.6143	82.1053
2.60641	81.8826
2.59857	81.7185
2.59078	81.6717
2.58304	81.5623
2.57534	81.3338
2.56768	81.2029
2.56008	81.2029
2.55251	80.9588
2.54499	80.7771
2.53752	80.7752
2.53009	80.6346
2.5227	80.4353
2.51536	80.3006
2.50806	80.2576
2.5008	80.1502
2.49358	79.865
2.4864	79.8924
2.47927	79.6678
2.47218	79.5447
2.46512	79.4314
2.45811	79.3631
2.45114	79.3553
2.4442	79.0428
2.43731	79.0018
2.43045	78.9158
2.42363	78.7264
2.41685	78.7283
2.41011	78.6424
2.40341	78.5018
2.39674	78.2654
2.39011	78.2908
2.38352	78.0779
2.37696	77.8045
2.37044	78.0096
2.36395	77.7986
2.35751	77.7596
2.35109	77.6873
2.34471	77.3904
2.33836	77.3592
2.33205	77.1443
2.32578	77.242
2.31953	76.9646
2.31332	77.1346
2.30714	76.8201
2.301	76.8279
2.29489	76.8162
2.28881	76.6893
2.28276	76.6893
2.27675	76.3221
2.27076	76.3123
2.26481	76.3279
2.25889	76.3846
2.253	76.4139
2.24714	76.2127
2.24131	76.0701
2.23551	75.9627
2.22974	75.9627
2.224	75.9393
2.21829	75.6971
2.21261	75.8045
2.20696	75.6482
2.20134	75.7498
2.19574	75.3904
2.19018	75.4002
2.18464	75.3475
2.17913	75.0232
2.17365	75.2967
2.16819	75.2381
2.16277	75.1053
2.15737	75.0584
2.15199	74.8084
2.14665	75.1639
2.14133	74.8006
2.13603	74.8514
2.13077	75.0311
2.12552	75.0467
2.12031	74.8006
2.11512	74.3904
2.10995	74.7381
2.10481	74.6248
2.0997	74.9334
2.09461	74.7693
2.08954	74.4725
2.0845	74.4607
2.07948	74.41
