Name: Arkosic Sandstone
Type: Rocks
Class: Sedimentary
Subclass: Sandstone
Particle Size: 0 - 75 Micrometers
Sample No.: sandstone.1
Owner: JHU
Wavelength Range: All
Origin: Sample No. 362,  The Hunt and Salisbury Collection at the U.S.
Description: Sample is moderately sorted fine medium-grained rock
Measurement: Directional (10 Degree) Hemispherical Reflectance
X Units: Wavelength (micrometers)
Y Units: Reflectance (percent)
wavelength	value
14.983	6.7391
14.645	4.9544
14.321	1.7091
14.011	6.4118
13.715	8.208
13.43	7.7692
13.158	5.7527
12.896	3.1314
12.644	2.336
12.402	1.5317
12.169	2.3639
11.945	6.1466
11.729	8.8676
11.52	9.7376
11.319	10.087
11.125	9.4786
10.937	8.5315
10.755	8.5779
10.58	8.3523
10.41	8.4415
10.245	7.7034
10.086	6.2875
9.931	5.5029
9.781	5.087
9.636	4.5672
9.495	4.976
9.358	7.6956
9.225	8.0117
9.095	7.1864
8.969	6.6735
8.847	6.4099
8.727	5.9614
8.612	4.6679
8.499	6.2081
8.389	6.5382
8.281	7.5729
8.177	9.7301
8.075	8.1967
7.976	5.9408
7.879	3.6188
7.784	2.5519
7.692	2.0477
7.601	1.5151
7.513	1.321
7.427	1.329
7.343	1.4105
7.261	1.6463
7.18	2.0279
7.102	2.5664
7.025	2.9199
6.949	3.5361
6.875	3.8409
6.803	3.9956
6.733	3.8537
6.663	4.4261
6.596	4.7756
6.529	5.4638
6.464	9.1247
6.4	9.784
6.338	7.4254
6.276	5.1529
6.216	4.0702
6.157	5.4989
6.099	8.6639
6.042	9.8565
5.986	9.25
5.931	8.2085
5.878	11.354
5.825	15.116
5.773	18.3
5.722	20.379
5.672	18.115
5.623	12.253
5.574	10.695
5.527	12.565
5.48	15.654
5.434	15.683
5.389	9.1174
5.345	6.2998
5.301	7.0446
5.258	10.003
5.215	16.044
5.174	17.291
5.133	16.59
5.093	15.86
5.053	14.408
5.014	14.217
4.975	16.653
4.937	21.676
4.9	29.576
4.863	39.883
4.827	44.811
4.791	47.763
4.756	49.728
4.721	50.268
4.687	47.86
4.654	50.491
4.62	53.673
4.588	54.927
4.556	54.453
4.524	51.34
4.492	46.85
4.461	46.033
4.431	48.157
4.401	50.599
4.371	53.645
4.342	55.892
4.313	56.47
4.284	56.255
4.256	57.12
4.229	57.579
4.201	57.945
4.174	58.702
4.147	59.507
4.121	60.348
4.095	61.166
4.069	61.687
4.044	61.5
4.019	60.796
3.994	59.256
3.97	58.947
3.945	60.539
3.921	61.273
3.898	61.27
3.875	60.915
3.852	60.662
3.829	60.702
3.806	60.642
3.784	60.298
3.762	59.601
3.74	58.909
3.719	58.584
3.698	58.273
3.677	58.186
3.656	57.802
3.636	57.125
3.615	56.366
3.595	55.593
3.575	54.765
3.556	53.697
3.536	52.086
3.517	50.292
3.498	49.571
3.479	48.833
3.461	47.985
3.442	47.159
3.424	46.612
3.406	45.636
3.388	44.861
3.371	43.89
3.353	43.476
3.336	43.198
3.319	42.364
3.302	41.254
3.285	40.09
3.269	38.915
3.252	37.772
3.236	36.58
3.22	35.42
3.204	34.269
3.188	33.167
3.173	32.093
3.157	31.1
3.142	30.139
3.127	29.247
3.112	28.43
3.097	27.732
3.082	27.016
3.067	26.561
3.053	26.092
3.039	25.593
3.025	25.144
3.011	24.817
2.997	24.469
2.983	24.064
2.969	23.267
2.956	22.801
2.942	22.904
2.929	23.064
2.916	23.295
2.903	23.72
2.89	24.196
2.877	24.683
2.864	25.158
2.852	25.667
2.839	26.091
2.827	26.405
2.814	26.746
2.802	26.822
2.79	26.187
2.778	25.937
2.766	21.937
2.755	25.848
2.743	25.585
2.731	27.179
2.72	29.455
2.708	29.726
2.697	41.004
2.686	52.557
2.675	58.652
2.664	63.072
2.653	66.032
2.642	67.654
2.632	68.711
2.621	69.624
2.61	70.169
2.6	70.609
2.59	70.779
2.579	70.785
2.569	70.992
2.559	71.255
2.549	71.278
2.539	71.684
2.529	71.901
2.519	72.142
2.509	72.353
2.5	72.541
2.49	72.769
2.481	73.417
2.471	73.932
2.462	74.308
2.452	74.793
2.443	75.355
2.434	76.202
2.425	76.924
2.416	77.492
2.407	77.867
2.398	77.792
2.389	77.473
2.38	77.453
2.372	78.138
2.363	78.267
2.354	78.325
2.346	78.688
2.337	78.942
2.329	78.742
2.321	78.736
2.312	78.804
2.304	79.144
2.296	79.343
2.288	79.46
2.28	79.533
2.272	79.716
2.264	79.779
2.256	79.912
2.248	79.9
2.24	79.94
2.233	80.086
2.225	79.894
2.217	78.936
2.21	73.61
2.202	77.268
2.195	77.958
2.187	78.972
2.18	79.604
2.173	79.618
2.166	79.395
2.158	79.714
2.151	80.753
2.144	82.219
2.137	82.948
2.13	83.278
2.123	83.342
2.116	83.446
2.109	83.666
2.102	83.812
2.095	83.919
2.089	83.842
2.082	83.989
2.06	83.907
2.028	83.578
1.996	80.735
1.964	78.902
1.932	76.168
1.9	79.091
1.868	80.306
1.836	82.999
1.804	83.003
1.772	82.859
1.74	81.921
1.708	82.451
1.676	82.309
1.644	81.579
1.612	81.631
1.58	81.897
1.548	81.155
1.516	81.388
1.484	79.667
1.452	78.945
1.42	77.464
1.388	78.2
1.356	79.117
1.324	79.679
1.292	79.274
1.26	79.764
1.228	79.495
1.196	78.141
1.164	76.731
1.132	76.905
1.1	76.394
1.068	75.846
1.036	75.16
1.004	73.924
0.972	73.281
0.94	72.804
0.908	71.921
0.876	71.81
0.844	71.709
0.812	72.074
0.795	71.469
0.787	71.51
0.779	71.742
0.771	71.096
0.763	70.319
0.755	70.223
0.747	70.449
0.739	69.83
0.731	70.169
0.723	68.953
0.715	69.198
0.707	68.773
0.699	70.158
0.691	68.678
0.683	68.283
0.675	68.284
0.667	67.96
0.659	67.218
0.651	67.798
0.643	66.815
0.635	66.513
0.627	66.109
0.619	66.345
0.611	65.401
0.603	65.19
0.595	65.207
0.587	64.591
0.579	63.899
0.571	63.471
0.563	61.95
0.555	60.509
0.547	59.636
0.539	57.861
0.531	56.606
0.523	55.803
0.515	53.97
0.507	52.196
0.499	50.965
0.491	49.877
0.483	48.399
0.475	47.707
0.467	46.986
0.459	45.599
0.451	45.407
0.443	44.25
0.435	42.378
0.427	40.793
0.419	38.672
0.411	37.503
0.403	36.386
