Name: Talc Mg3Si4O10(OH)2
Type: Mineral
Class: Silicates
Subclass: Phyllosilicates (Sheets silicates);  (Talc/Pyrophyllite Group)
Particle Size: Solid (fracture surface)
Sample No.: talc.1
Owner: JHU
Wavelength Range: IR
Origin: Feiser Mine, Ruby Mountains, Montana, USA via Jim Crowley,
Description: The hand sample was massive, compact, translucent,
Measurement: Bidirectional reflectance
X Units: Wavelength (micrometers)
Y Units: Reflectance (percent)
wavelength	value
25.0442	6.6001
24.3388	7.3176
23.6719	8.7141
23.0407	8.614
22.4422	10.5918
21.8741	11.3891
21.334	15.2202
20.8199	17.0229
20.33	17.414
19.8627	15.2011
19.4163	17.1167
18.9896	17.687
18.5812	16.1357
18.19	13.4257
17.815	13.3786
17.4551	10.8557
17.1094	4.3347
16.7772	1.3386
16.4576	1.4897
16.15	1.8638
15.8537	2.3086
15.568	2.7983
15.2925	3.4978
15.0265	5.5979
14.7697	9.3454
14.5214	7.8415
14.2814	1.5652
14.0492	1.4351
13.8244	1.8108
13.6067	2.0254
13.3957	2.2058
13.1912	2.374
12.9929	2.478
12.8004	2.5542
12.6135	2.6101
12.432	2.7175
12.2557	2.8323
12.0843	2.9409
11.9176	3.0779
11.7555	3.187
11.5977	3.2776
11.444	3.3425
11.2944	3.4683
11.1487	3.584
11.0067	3.729
10.8682	3.9082
10.7332	4.1125
10.6015	4.3867
10.473	4.6494
10.3476	4.9563
10.2251	5.3804
10.1056	6.0215
9.98873	7.0222
9.87458	9.6013
9.763	12.6757
9.65392	14.2028
9.54724	14.4358
9.44291	12.144
9.34082	12.3418
9.24091	12.9909
9.14312	13.4384
9.04739	14.1384
8.95363	14.448
8.8618	14.5766
8.77183	14.7019
8.68368	14.1611
8.59727	12.0154
8.51257	9.6218
8.42951	7.084
8.34807	4.7519
8.26819	2.9927
8.18981	2.051
8.11292	1.5962
8.03745	1.4006
7.96337	1.3057
7.89064	1.3159
7.81924	1.2646
7.74911	1.2163
7.68023	1.2063
7.61256	1.2305
7.54608	1.2803
7.48074	1.3174
7.41653	1.3542
7.35341	1.3752
7.29136	1.4104
7.23034	1.4028
7.17033	1.426
7.11132	1.4714
7.05327	1.5095
6.99616	1.5286
6.93996	1.553
6.88467	1.5884
6.83024	1.5959
6.77667	1.6626
6.72393	1.7224
6.67201	1.7493
6.62089	1.7551
6.57054	1.7458
6.52095	1.7617
6.4721	1.7996
6.42398	1.8074
6.37657	1.8274
6.32986	1.8406
6.28382	1.8467
6.23845	1.8503
6.19373	1.8179
6.14965	1.791
6.10619	1.7322
6.06334	1.7024
6.02109	1.7017
5.97942	1.6797
5.93832	1.7175
5.89778	1.7698
5.8578	1.7388
5.81835	1.7693
5.77943	1.8215
5.74103	1.8052
5.70314	1.7727
5.66574	1.7881
5.62883	1.8215
5.5924	1.8184
5.55644	1.7895
5.52093	1.783
5.48588	1.7793
5.45127	1.8108
5.41709	1.856
5.38334	1.8603
5.35	1.855
5.31708	1.8962
5.28456	1.9231
5.25243	1.905
5.2207	1.8801
5.18934	1.9001
5.15836	1.937
5.12775	1.9504
5.09749	2.0234
5.0676	2.1633
5.03805	2.2266
5.00884	2.2439
4.97998	2.2522
4.95144	2.2388
4.92322	2.238
4.89533	2.2947
4.86775	2.3276
4.84048	2.3406
4.81351	2.3584
4.78684	2.3806
4.76047	2.4121
4.73439	2.4275
4.70859	2.4192
4.68306	2.4172
4.65782	2.4241
4.63284	2.4482
4.60814	2.5168
4.58369	2.5476
4.5595	2.5669
4.53557	2.5771
4.51188	2.5842
4.48845	2.5979
4.46525	2.595
4.44229	2.6023
4.41957	2.6247
4.39708	2.6521
4.37481	2.6677
4.35277	2.6714
4.33096	2.6755
4.30935	2.698
4.28797	2.699
4.26679	2.7104
4.24583	2.7205
4.22506	2.7295
4.2045	2.7402
4.18414	2.7449
4.16398	2.7541
4.14401	2.7393
4.12423	2.7546
4.10464	2.7705
4.08523	2.7676
4.066	2.7578
4.04696	2.7664
4.02809	2.7703
4.0094	2.7849
3.99088	2.7898
3.97253	2.7888
3.95435	2.7915
3.93634	2.7971
3.91848	2.8083
3.90079	2.8025
3.88326	2.8064
3.86589	2.8132
3.84867	2.8227
3.8316	2.8227
3.81468	2.8257
3.79791	2.8352
3.78129	2.8391
3.76482	2.8467
3.74848	2.8455
3.73229	2.8381
3.71624	2.8486
3.70032	2.8501
3.68454	2.8271
3.6689	2.8259
3.65338	2.8303
3.638	2.8269
3.62275	2.811
3.60762	2.8269
3.59262	2.8181
3.57775	2.8091
3.56299	2.8027
3.54836	2.793
3.53385	2.762
3.51945	2.6648
3.50517	2.4514
3.49101	2.5388
3.47696	2.5989
3.46303	2.6096
3.4492	2.5518
3.43549	2.4521
3.42188	2.2632
3.40838	2.2722
3.39499	2.4109
3.38171	2.4099
3.36852	2.4519
3.35544	2.4873
3.34246	2.5896
3.32958	2.5627
3.3168	2.4802
3.30411	2.5271
3.29153	2.6081
3.27903	2.6123
3.26664	2.6201
3.25433	2.6135
3.24212	2.6047
3.23	2.6018
3.21797	2.5808
3.20603	2.5576
3.19418	2.5425
3.18241	2.5273
3.17074	2.5039
3.15914	2.4873
3.14763	2.4705
3.13621	2.4697
3.12487	2.4592
3.11361	2.4458
3.10243	2.425
3.09133	2.4148
3.0803	2.4045
3.06936	2.3879
3.0585	2.3945
3.04771	2.3752
3.037	2.3633
3.02636	2.3459
3.0158	2.3364
3.00531	2.3413
2.99489	2.313
2.98454	2.3042
2.97427	2.2866
2.96407	2.2627
2.95393	2.2747
2.94387	2.2498
2.93387	2.259
2.92394	2.2368
2.91408	2.2541
2.90429	2.2505
2.89456	2.2336
2.88489	2.2432
2.87529	2.2595
2.86576	2.2522
2.85628	2.2488
2.84687	2.2432
2.83752	2.2329
2.82823	2.1877
2.81901	2.1992
2.80984	2.123
2.80073	2.1152
2.79168	2.0815
2.78269	2.0876
2.77376	2.1174
2.76488	2.144
2.75606	2.1592
2.7473	2.1802
2.73859	2.1301
2.72994	2.0151
2.72134	1.6162
2.7128	2.1702
2.70431	2.7012
2.69587	2.8403
2.68748	2.8723
2.67915	2.8613
2.67087	2.9053
2.66264	2.9123
2.65446	2.9043
2.64633	2.8513
2.63825	2.8547
2.63021	2.8281
2.62223	2.835
2.6143	2.8103
2.60641	2.8057
2.59857	2.7649
2.59078	2.7568
2.58304	2.7417
2.57534	2.7056
2.56768	2.7107
2.56008	2.7214
2.55251	2.7195
2.54499	2.7358
2.53752	2.7092
2.53009	2.6821
2.5227	2.6816
2.51536	2.6562
2.50806	2.7134
2.5008	2.6709
2.49358	2.6753
2.4864	2.687
2.47927	2.6572
2.47218	2.6333
2.46512	2.5449
2.45811	2.5933
2.45114	2.6089
2.4442	2.6182
2.43731	2.6196
2.43045	2.6294
2.42363	2.6389
2.41685	2.6758
2.41011	2.7036
2.40341	2.645
2.39674	2.4897
2.39011	2.4653
2.38352	2.5185
2.37696	2.5674
2.37044	2.5869
2.36395	2.6536
2.35751	2.6411
2.35109	2.6509
2.34471	2.7007
2.33836	2.6955
2.33205	2.6643
2.32578	2.5146
2.31953	2.4424
2.31332	2.1848
2.30714	2.2676
2.301	2.417
2.29489	2.4951
2.28881	2.3223
2.28276	2.5168
2.27675	2.5842
2.27076	2.6909
2.26481	2.6819
2.25889	2.7551
2.253	2.7871
2.24714	2.7954
2.24131	2.7893
2.23551	2.7578
2.22974	2.7808
2.224	2.8247
2.21829	2.803
2.21261	2.812
2.20696	2.8384
2.20134	2.8315
2.19574	2.8384
2.19018	2.8716
2.18464	2.8694
2.17913	2.8245
2.17365	2.833
2.16819	2.8506
2.16277	2.8694
2.15737	2.8257
2.15199	2.9111
2.14665	2.8948
2.14133	2.9084
2.13603	2.8567
2.13077	2.8782
2.12552	2.8525
2.12031	2.8979
2.11512	2.8979
2.10995	2.9416
2.10481	2.9192
2.0997	2.9394
2.09461	2.9172
2.08954	2.9836
2.0845	2.9563
2.07948	2.9463
