Name: Tourmaline (Elbaite) Na(Li,Al)3Al6(BO3)3Si6018(OH)4
Type: Mineral
Class: Silicates
Subclass: Cycloilicates (Ring Silicates)
Particle Size: Fine  (Less than 2  Micrometers)
Sample No.: tourmal.1
Owner: JHU
Wavelength Range: IR
Origin: Sao Jose De Brejuada, Minas Gerais, Brazil via the Smithsonian
Description: The sample was a purple, translucent, sudhedral crystal,
Measurement: Transmission
X Units: Wavelength (micrometers)
Y Units: Transmittance (percent)
wavelength	value
25.0442	69.8475
24.3388	68.5975
23.6719	64.0467
23.0407	59.576
22.4422	56.2704
21.8741	50.3632
21.334	50.7206
20.8199	48.5555
20.33	43.1454
19.8627	34.4589
19.4163	29.8261
18.9896	30.3735
18.5812	33.0839
18.19	33.8212
17.815	33.6327
17.4551	36.6337
17.1094	37.2226
16.7772	41.0233
16.4576	48.5995
16.15	52.5868
15.8537	56.096
15.568	57.8246
15.2925	60.1112
15.0265	61.8958
14.7697	67.1156
14.5214	69.5291
14.2814	66.7171
14.0492	55.5096
13.8244	53.7958
13.6067	65.8585
13.3957	69.8865
13.1912	68.8987
12.9929	69.2127
12.8004	55.5936
12.6135	59.0528
12.432	76.6321
12.2557	80.3157
12.0843	80.3623
11.9176	78.7403
11.7555	76.056
11.5977	76.0066
11.444	76.5325
11.2944	76.3331
11.1487	75.2627
11.0067	74.8377
10.8682	72.2381
10.7332	66.8421
10.6015	59.7206
10.473	49.0624
10.3476	35.9604
10.2251	24.5278
10.1056	18.7404
9.98873	19.9457
9.87458	22.4826
9.763	20.7951
9.65392	23.7534
9.54724	27.007
9.44291	28.7934
9.34082	35.6825
9.24091	39.0019
9.14312	31.6125
9.04739	29.2831
8.95363	35.7296
8.8618	47.5599
8.77183	58.0365
8.68368	66.827
8.59727	71.8445
8.51257	73.8585
8.42951	74.9822
8.34807	77.4397
8.26819	77.7564
8.18981	74.0613
8.11292	67.4058
8.03745	64.8446
7.96337	60.5826
7.89064	54.9581
7.81924	49.9906
7.74911	42.9491
7.68023	40.3012
7.61256	44.4762
7.54608	50.1666
7.48074	52.3656
7.41653	50.1649
7.35341	53.8143
7.29136	60.7601
7.23034	64.1995
7.17033	65.3934
7.11132	70.577
7.05327	74.5994
6.99616	77.3851
6.93996	78.2078
6.88467	80.9251
6.83024	82.0374
6.77667	84.4556
6.72393	85.7039
6.67201	86.2942
6.62089	86.7923
6.57054	87.7859
6.52095	88.1721
6.4721	88.4812
6.42398	88.6897
6.37657	88.7146
6.32986	88.5374
6.28382	88.262
6.23845	87.7381
6.19373	86.7671
6.14965	85.657
6.10619	85.3499
6.06334	85.8924
6.02109	87.4031
5.97942	88.908
5.93832	89.136
5.89778	89.2556
5.8578	89.5486
5.81835	90.0159
5.77943	90.1565
5.74103	90.386
5.70314	90.4631
5.66574	90.5503
5.62883	90.635
5.5924	90.6521
5.55644	90.6941
5.52093	90.7322
5.48588	90.7234
5.45127	90.8247
5.41709	90.9026
5.38334	90.8679
5.35	90.96
5.31708	90.9773
5.28456	91.0037
5.25243	91.0872
5.2207	91.1087
5.18934	91.1394
5.15836	91.1917
5.12775	91.2078
5.09749	91.221
5.0676	91.1921
5.03805	91.1702
5.00884	91.155
4.97998	91.1384
4.95144	91.1314
4.92322	91.1548
4.89533	91.1458
4.86775	91.1453
4.84048	91.1633
4.81351	91.2991
4.78684	91.2922
4.76047	91.3413
4.73439	91.3601
4.70859	91.4014
4.68306	91.4343
4.65782	91.4636
4.63284	91.5676
4.60814	91.6843
4.58369	91.6223
4.5595	91.5711
4.53557	91.582
4.51188	91.5994
4.48845	91.5606
4.46525	91.6201
4.44229	91.4695
4.41957	91.4863
4.39708	91.5046
4.37481	91.5549
4.35277	91.5037
4.33096	91.4671
4.30935	91.5552
4.28797	91.4441
4.26679	91.5125
4.24583	91.4942
4.22506	91.5388
4.2045	91.5325
4.18414	91.5713
4.16398	91.6311
4.14401	91.5339
4.12423	91.627
4.10464	91.6438
4.08523	91.7454
4.066	91.7063
4.04696	91.7266
4.02809	91.7893
4.0094	91.7859
3.99088	91.7805
3.97253	91.8235
3.95435	91.8543
3.93634	91.8889
3.91848	91.9202
3.90079	91.8899
3.88326	91.9075
3.86589	91.8254
3.84867	91.8587
3.8316	91.7986
3.81468	91.804
3.79791	91.7112
3.78129	91.7537
3.76482	91.7371
3.74848	91.7219
3.73229	91.6924
3.71624	91.6746
3.70032	91.6326
3.68454	91.6279
3.6689	91.5671
3.65338	91.4727
3.638	91.4392
3.62275	91.3289
3.60762	91.3333
3.59262	91.3643
3.57775	91.2488
3.56299	91.0955
3.54836	91.0889
3.53385	90.9446
3.51945	90.5759
3.50517	90.2156
3.49101	90.2022
3.47696	90.2197
3.46303	90.1592
3.4492	89.8587
3.43549	89.6531
3.42188	89.0879
3.40838	89.0388
3.39499	89.3152
3.38171	89.1787
3.36852	89.3604
3.35544	89.3848
3.34246	89.3584
3.32958	89.1707
3.3168	89.0205
3.30411	89.1131
3.29153	88.8914
3.27903	88.6221
3.26664	88.4824
3.25433	88.199
3.24212	87.9346
3.23	87.7071
3.21797	87.3953
3.20603	87.0442
3.19418	86.8201
3.18241	86.6385
3.17074	86.3963
3.15914	86.0691
3.14763	85.6956
3.13621	85.4265
3.12487	85.031
3.11361	84.6961
3.10243	84.284
3.09133	83.8025
3.0803	83.4275
3.06936	83.0408
3.0585	82.6599
3.04771	82.284
3.037	81.8299
3.02636	81.5608
3.0158	80.8177
3.00531	80.1448
2.99489	79.2757
2.98454	78.3533
2.97427	77.3465
2.96407	76.1917
2.95393	75.3904
2.94387	74.4964
2.93387	73.7586
2.92394	73.033
2.91408	72.2332
2.90429	71.4559
2.89456	70.6058
2.88489	69.4022
2.87529	68.473
2.86576	68.1331
2.85628	69.2967
2.84687	72.4964
2.83752	75.6189
2.82823	77.5018
2.81901	77.7776
2.80984	76.8543
2.80073	76.199
2.79168	76.3147
2.78269	76.6658
2.77376	80.3694
2.76488	85.7947
2.75606	88.0608
2.7473	89.0335
2.73859	89.2893
2.72994	90.5076
2.72134	90.7756
2.7128	91.1272
2.70431	91.617
2.69587	91.9685
2.68748	92.1702
2.67915	92.1643
2.67087	92.4378
2.66264	92.1858
2.65446	92.1838
2.64633	92.2703
2.63825	92.3713
2.63021	92.4221
2.62223	92.1995
2.6143	92.1462
2.60641	92.4002
2.59857	92.3191
2.59078	92.2293
2.58304	92.2595
2.57534	92.1726
2.56768	92.2527
2.56008	92.1668
2.55251	92.2605
2.54499	92.0925
2.53752	92.2576
2.53009	92.1638
2.5227	91.9138
2.51536	92.074
2.50806	92.0935
2.5008	92.2146
2.49358	92.0945
2.4864	92.2039
2.47927	92.0154
2.47218	91.9802
2.46512	91.9861
2.45811	92.0896
2.45114	92.3337
2.4442	91.988
2.43731	91.9802
2.43045	91.9529
2.42363	92.238
2.41685	92.2029
2.41011	92.0369
2.40341	92.032
2.39674	91.9539
2.39011	92.0994
2.38352	92.0037
2.37696	91.9099
2.37044	91.9763
2.36395	92.1736
2.35751	91.9529
2.35109	92.1677
2.34471	91.9109
2.33836	91.8396
2.33205	91.867
2.32578	91.9197
2.31953	91.863
2.31332	91.783
2.30714	91.8904
2.301	91.9763
2.29489	91.9744
2.28881	92.114
2.28276	91.8796
2.27675	91.7478
2.27076	91.6209
2.26481	92.3005
2.25889	91.8289
2.253	91.8513
2.24714	92.2351
2.24131	91.8201
2.23551	91.9304
2.22974	92.0369
2.224	91.8533
2.21829	91.9275
2.21261	91.824
2.20696	92.1697
2.20134	91.6052
2.19574	91.6091
2.19018	91.8201
2.18464	91.6091
2.17913	91.6365
2.17365	92.2009
2.16819	91.822
2.16277	91.8709
2.15737	91.8455
2.15199	91.6111
2.14665	91.8611
2.14133	91.6267
2.13603	91.7439
2.13077	92.113
2.12552	91.7947
2.12031	91.8123
2.11512	91.8513
2.10995	91.8435
2.10481	91.6951
2.0997	91.992
2.09461	91.949
2.08954	91.6443
2.0845	92.0486
2.07948	91.9627
