Name: Riebeckite Na2(Fe+2,Mg)3Fe2+3Si8O22(OH)2
Type: Mineral
Class: Silicates
Subclass: Inosilicates (chain silicates); (Amphibole Group)
Particle Size: Fine  (Less than 2  Micrometers)
Sample No.: riebeck.1
Owner: JHU
Wavelength Range: IR
Origin: Hurricane Mountain, Conway, New Hampshire via the
Description: The sample was an 11.54 g portion of a black crystal.
Measurement: Transmission
X Units: Wavelength (micrometers)
Y Units: Transmittance (percent)
wavelength	value
25.0442	70.3436
24.3388	69.285
23.6719	62.4725
23.0407	53.4374
22.4422	39.7655
21.8741	40.2987
21.334	52.6092
20.8199	58.9022
20.33	57.5858
19.8627	60.3329
19.4163	67.8084
18.9896	72.24
18.5812	70.4354
18.19	76.451
17.815	83.325
17.4551	86.5554
17.1094	88.9422
16.7772	89.9607
16.4576	89.3992
16.15	87.8953
15.8537	83.9392
15.568	81.2068
15.2925	85.2752
15.0265	85.9939
14.7697	88.7019
14.5214	88.8963
14.2814	89.4529
14.0492	88.9881
13.8244	89.1956
13.6067	87.4788
13.3957	82.9651
13.1912	82.074
12.9929	84.6702
12.8004	86.8401
12.6135	88.9841
12.432	88.1912
12.2557	86.7444
12.0843	84.6546
11.9176	82.1775
11.7555	79.0218
11.5977	74.5604
11.444	69.7386
11.2944	66.8519
11.1487	64.4432
11.0067	62.1541
10.8682	56.5497
10.7332	49.7557
10.6015	40.5922
10.473	32.6938
10.3476	29.5375
10.2251	30.266
10.1056	34.8114
9.98873	39.6347
9.87458	43.0765
9.763	45.3436
9.65392	48.162
9.54724	51.7479
9.44291	53.7323
9.34082	52.0257
9.24091	50.264
9.14312	53.66
9.04739	58.2762
8.95363	60.0428
8.8618	60.9315
8.77183	67.7015
8.68368	73.9647
8.59727	78.1482
8.51257	80.5169
8.42951	82.6338
8.34807	84.4929
8.26819	86.1463
8.18981	87.5176
8.11292	88.4776
8.03745	89.2715
7.96337	90.1726
7.89064	90.8386
7.81924	91.2527
7.74911	91.6004
7.68023	91.7727
7.61256	92.0088
7.54608	92.4011
7.48074	92.6631
7.41653	92.9082
7.35341	93.1091
7.29136	93.168
7.23034	93.3464
7.17033	93.9387
7.11132	94.3445
7.05327	94.2695
6.99616	94.3914
6.93996	94.6931
6.88467	94.6697
6.83024	94.53
6.77667	94.6045
6.72393	94.7585
6.67201	94.8535
6.62089	94.74
6.57054	94.7996
6.52095	94.873
6.4721	95.0154
6.42398	94.9893
6.37657	94.8701
6.32986	94.709
6.28382	94.6355
6.23845	94.7432
6.19373	94.7878
6.14965	94.4531
6.10619	94.239
6.06334	94.3552
6.02109	95.0947
5.97942	95.7498
5.93832	95.2188
5.89778	94.8682
5.8578	94.7529
5.81835	94.6882
5.77943	94.7297
5.74103	94.7312
5.70314	94.6563
5.66574	94.5605
5.62883	94.3694
5.5924	94.4089
5.55644	94.3779
5.52093	94.4509
5.48588	94.4734
5.45127	94.4336
5.41709	94.3701
5.38334	94.283
5.35	94.3799
5.31708	94.3496
5.28456	94.3826
5.25243	94.3079
5.2207	94.2158
5.18934	94.2205
5.15836	94.2354
5.12775	94.2324
5.09749	94.1843
5.0676	94.0986
5.03805	94.0344
5.00884	93.9519
4.97998	93.9788
4.95144	93.9299
4.92322	93.8162
4.89533	93.7488
4.86775	93.6326
4.84048	93.6375
4.81351	93.5408
4.78684	93.5183
4.76047	93.3836
4.73439	93.301
4.70859	93.2102
4.68306	93.1521
4.65782	93.177
4.63284	93.096
4.60814	93.1482
4.58369	92.9568
4.5595	92.8508
4.53557	92.8015
4.51188	92.7073
4.48845	92.6863
4.46525	92.6199
4.44229	92.5046
4.41957	92.4387
4.39708	92.366
4.37481	92.3186
4.35277	92.217
4.33096	92.1238
4.30935	91.9929
4.28797	91.8855
4.26679	91.8718
4.24583	91.7947
4.22506	91.7307
4.2045	91.5593
4.18414	91.4832
4.16398	91.3987
4.14401	91.2854
4.12423	91.2371
4.10464	91.1336
4.08523	90.9885
4.066	90.8806
4.04696	90.7522
4.02809	90.7288
4.0094	90.6043
3.99088	90.5691
3.97253	90.3611
3.95435	90.282
3.93634	90.2717
3.91848	90.1936
3.90079	90.1209
3.88326	89.9636
3.86589	89.8455
3.84867	89.7327
3.8316	89.658
3.81468	89.6834
3.79791	89.5525
3.78129	89.4548
3.76482	89.3245
3.74848	89.1922
3.73229	89.1052
3.71624	89.0056
3.70032	88.846
3.68454	88.7151
3.6689	88.5769
3.65338	88.5261
3.638	88.4124
3.62275	88.28
3.60762	88.1194
3.59262	88.1267
3.57775	87.9046
3.56299	87.7464
3.54836	87.7381
3.53385	87.5232
3.51945	87.428
3.50517	87.3767
3.49101	87.072
3.47696	86.9676
3.46303	86.8264
3.4492	86.7678
3.43549	86.7014
3.42188	86.6951
3.40838	86.4773
3.39499	86.3513
3.38171	86.3089
3.36852	86.2542
3.35544	86.1214
3.34246	85.9685
3.32958	85.9007
3.3168	85.8206
3.30411	85.783
3.29153	85.7
3.27903	85.4529
3.26664	85.2796
3.25433	85.3089
3.24212	85.1697
3.23	85.1038
3.21797	84.9832
3.20603	84.8865
3.19418	84.6658
3.18241	84.5105
3.17074	84.4012
3.15914	84.1931
3.14763	84.0623
3.13621	83.8933
3.12487	83.7469
3.11361	83.6385
3.10243	83.2781
3.09133	83.115
3.0803	82.8709
3.06936	82.7928
3.0585	82.4705
3.04771	82.2517
3.037	82.1746
3.02636	82.0652
3.0158	81.8221
3.00531	81.6062
2.99489	81.2322
2.98454	80.9744
2.97427	80.656
2.96407	80.4725
2.95393	80.156
2.94387	79.9392
2.93387	79.7517
2.92394	79.4891
2.91408	79.4344
2.90429	79.3836
2.89456	79.3553
2.88489	79.1307
2.87529	78.9744
2.86576	78.9334
2.85628	78.824
2.84687	78.8494
2.83752	78.8953
2.82823	78.9021
2.81901	79.1248
2.80984	79.1092
2.80073	79.0506
2.79168	79.0662
2.78269	79.1101
2.77376	79.0193
2.76488	76.4764
2.75606	79.5935
2.7473	79.0906
2.73859	79.3016
2.72994	79.6697
2.72134	79.4451
2.7128	79.4217
2.70431	79.282
2.69587	79.2361
2.68748	79.1307
2.67915	79.1678
2.67087	78.8748
2.66264	78.743
2.65446	78.7859
2.64633	78.617
2.63825	78.5271
2.63021	78.4773
2.62223	78.3133
2.6143	78.1287
2.60641	77.9646
2.59857	78.035
2.59078	77.8436
2.58304	77.7732
2.57534	77.5271
2.56768	77.5076
2.56008	77.4803
2.55251	77.2049
2.54499	77.0115
2.53752	77.1873
2.53009	76.9139
2.5227	76.6268
2.51536	76.6424
2.50806	76.6131
2.5008	76.3064
2.49358	76.2342
2.4864	76.1736
2.47927	75.9627
2.47218	75.8748
2.46512	75.824
2.45811	75.8377
2.45114	75.3689
2.4442	75.3006
2.43731	75.1912
2.43045	75.1287
2.42363	75.0623
2.41685	75.0252
2.41011	74.8611
2.40341	74.6639
2.39674	74.4295
2.39011	74.2928
2.38352	74.4002
2.37696	74.2986
2.37044	74.0897
2.36395	74.0897
2.35751	73.9256
2.35109	73.9236
2.34471	73.7264
2.33836	73.5272
2.33205	73.3611
2.32578	73.5311
2.31953	73.2732
2.31332	73.3299
2.30714	73.0643
2.301	73.1131
2.29489	72.91
2.28881	72.742
2.28276	72.9236
2.27675	72.4861
2.27076	72.5858
2.26481	72.5252
2.25889	72.4608
2.253	72.117
2.24714	72.119
2.24131	72.0643
2.23551	71.7986
2.22974	71.8846
2.224	71.7733
2.21829	71.7498
2.21261	71.66
2.20696	71.66
2.20134	71.2068
2.19574	71.2537
2.19018	71.2225
2.18464	71.0701
2.17913	71.0311
2.17365	71.2733
2.16819	71.2928
2.16277	71.0662
2.15737	71.0154
2.15199	70.9139
2.14665	70.9998
2.14133	70.7654
2.13603	70.7615
2.13077	70.7225
2.12552	70.6873
2.12031	70.4529
2.11512	70.9373
2.10995	70.3944
2.10481	70.4569
2.0997	70.367
2.09461	70.6092
2.08954	70.2811
2.0845	70.3045
2.07948	70.5194
