Name: Yamato 791192
Type: Stony Meteorites
Class: Achondrite
Subclass: Eucrite
Particle Size: 0-75 micrometers
Sample No.: Yamato 791192
Owner: JHU
Origin: Meteorite found in Antarctica in 1979.  Smithsonian sample No.
Description: None.
Measurement: Bidirectional reflectance
X Units: Wavelength (micrometers)
Y Units: Reflectance (percent)
wavelength	value
25.044	0.751
24.339	0.76
23.672	0.8088
23.041	0.8442
22.442	0.9023
21.874	0.9502
21.334	1.0205
20.82	1.0244
20.33	1.0425
19.863	1.0183
19.416	0.9797
18.99	0.8679
18.581	0.7854
18.19	0.7322
17.815	0.781
17.455	0.7805
17.109	0.7939
16.777	0.7954
16.458	0.7356
16.15	0.6567
15.854	0.5828
15.568	0.4783
15.292	0.4324
15.027	0.5
14.77	0.4915
14.521	0.7031
14.281	0.9199
14.049	0.9961
13.824	0.8254
13.607	0.7639
13.396	1.0552
13.191	1.3105
12.993	1.4426
12.8	1.6196
12.614	1.8491
12.432	1.9785
12.256	1.8975
12.084	1.6218
11.918	1.3318
11.755	1.1611
11.598	1.0237
11.444	0.9556
11.294	0.9438
11.149	0.863
11.007	0.7776
10.868	0.8137
10.733	0.8755
10.602	0.8957
10.473	0.8787
10.348	0.8254
10.225	0.7705
10.106	0.7859
9.9887	0.7791
9.8746	0.7825
9.763	0.7935
9.6539	0.8044
9.5472	0.8577
9.4429	0.884
9.3408	0.8923
9.2409	0.9011
9.1431	0.9338
9.0474	0.9172
8.9536	0.852
8.8618	0.6824
8.7718	0.5793
8.6837	0.4783
8.5973	0.4338
8.5126	0.4253
8.4295	0.436
8.3481	0.4641
8.2682	0.532
8.1898	0.6628
8.1129	0.8845
8.0374	1.1865
7.9634	1.5503
7.8906	1.9194
7.8192	2.2856
7.7491	2.6438
7.6802	2.9709
7.6126	3.2585
7.5461	3.5659
7.4807	3.8662
7.4165	4.1538
7.3534	4.425
7.2914	4.6443
7.2303	4.8552
7.1703	5.0251
7.1113	5.1799
7.0533	5.3254
6.9962	5.477
6.94	5.6055
6.8847	5.7141
6.8302	5.8152
6.7767	5.8901
6.7239	5.9267
6.672	5.9038
6.6209	5.8323
6.5705	5.8049
6.5209	5.8435
6.4721	5.8691
6.424	5.8352
6.3766	5.7563
6.3299	5.6103
6.2838	5.5166
6.2385	5.4524
6.1937	5.3691
6.1496	5.4036
6.1062	5.6199
6.0633	5.7248
6.0211	5.7842
5.9794	5.844
5.9383	5.9907
5.8978	6.3052
5.8578	6.5842
5.8184	6.7868
5.7794	6.9704
5.741	7.1543
5.7031	7.2961
5.6657	7.3984
5.6288	7.5088
5.5924	7.6731
5.5564	7.843
5.5209	7.9267
5.4859	7.9084
5.4513	7.8308
5.4171	7.7512
5.3833	7.7331
5.35	7.6855
5.3171	7.5427
5.2846	7.3572
5.2524	7.2295
5.2207	7.176
5.1893	7.2034
5.1584	7.321
5.1277	7.4961
5.0975	7.6809
5.0676	7.8681
5.038	8.0185
5.0088	8.1323
4.98	8.2458
4.9514	8.3845
4.9232	8.5183
4.8953	8.6328
4.8678	8.7451
4.8405	8.9011
4.8135	9.0708
4.7868	9.2114
4.7605	9.303
4.7344	9.4306
4.7086	9.6111
4.6831	9.7912
4.6578	9.958
4.6328	10.099
4.6081	10.214
4.5837	10.287
4.5595	10.342
4.5356	10.373
4.5119	10.394
4.4884	10.407
4.4652	10.416
4.4423	10.435
4.4196	10.453
4.3971	10.465
4.3748	10.472
4.3528	10.487
4.331	10.494
4.3094	10.514
4.288	10.527
4.2668	10.549
4.2458	10.565
4.2251	10.58
4.2045	10.602
4.1841	10.611
4.164	10.619
4.144	10.618
4.1242	10.624
4.1046	10.632
4.0852	10.638
4.066	10.639
4.047	10.635
4.0281	10.629
4.0094	10.618
3.9909	10.61
3.9725	10.601
3.9544	10.586
3.9363	10.58
3.9185	10.576
3.9008	10.56
3.8833	10.553
3.8659	10.536
3.8487	10.518
3.8316	10.498
3.8147	10.486
3.7979	10.467
3.7813	10.452
3.7648	10.44
3.7485	10.416
3.7323	10.393
3.7162	10.359
3.7003	10.337
3.6845	10.303
3.6689	10.268
3.6534	10.244
3.638	10.215
3.6227	10.177
3.6076	10.142
3.5926	10.102
3.5777	10.061
3.563	10.014
3.5484	9.9682
3.5338	9.9133
3.5195	9.8498
3.5052	9.7395
3.491	9.7053
3.477	9.6816
3.463	9.6445
3.4492	9.5815
3.4355	9.5036
3.4219	9.3769
3.4084	9.3266
3.395	9.3506
3.3817	9.3105
3.3685	9.2768
3.3554	9.2571
3.3425	9.2099
3.3296	9.1687
3.3168	9.1167
3.3041	9.0505
3.2915	8.9834
3.279	8.9157
3.2666	8.8379
3.2543	8.7622
3.2421	8.6899
3.23	8.6191
3.218	8.5471
3.206	8.4643
3.1942	8.3855
3.1824	8.3071
3.1707	8.218
3.1591	8.1387
3.1476	8.0512
3.1362	7.9746
3.1249	7.8865
3.1136	7.8127
3.1024	7.7358
3.0913	7.6575
3.0803	7.5867
3.0694	7.5488
3.0585	7.4929
3.0477	7.4409
3.037	7.3794
3.0264	7.2969
3.0158	7.216
3.0053	7.1455
2.9949	7.0625
2.9845	6.9856
2.9743	6.9099
2.9641	6.8115
2.9539	6.6914
2.9439	6.542
2.9339	6.4773
2.9239	6.5659
2.9141	6.6892
2.9043	6.7693
2.8946	6.8213
2.8849	6.8782
2.8753	6.907
2.8658	6.9477
2.8563	6.9812
2.8469	7.0242
2.8375	7.0239
2.8282	6.9936
2.819	6.9665
2.8098	7.0539
2.8007	7.2373
2.7917	7.4343
2.7827	7.6252
2.7738	7.791
2.7649	7.9526
2.7561	8.1169
2.7473	8.2993
2.7386	8.4504
2.7299	8.5937
2.7213	8.7026
2.7128	8.8208
2.7043	8.8869
2.6959	8.9324
2.6875	8.9553
2.6791	8.9514
2.6709	8.946
2.6626	8.9614
2.6545	8.9392
2.6463	8.9101
2.6382	8.872
2.6302	8.8244
2.6222	8.7854
2.6143	8.7336
2.6064	8.7002
2.5986	8.6606
2.5908	8.5991
2.583	8.5657
2.5753	8.5188
2.5677	8.4717
2.5601	8.4053
2.5525	8.3657
2.545	8.3244
2.5375	8.279
2.5301	8.2112
2.5227	8.1665
2.5154	8.1118
2.5081	8.072
2.5008	8.0173
2.4936	7.9509
2.4864	7.9138
2.4793	7.8625
2.4722	7.8061
2.4651	7.7566
2.4581	7.7046
2.4511	7.6269
2.4442	7.5764
2.4373	7.5285
2.4305	7.4682
2.4236	7.414
2.4169	7.3506
2.4101	7.2988
2.4034	7.2488
2.3967	7.1907
2.3901	7.1677
2.3835	7.1238
2.377	7.0515
2.3704	7.0154
2.364	6.9748
2.3575	6.9233
2.3511	6.8638
2.3447	6.8103
2.3384	6.7724
2.3321	6.7197
2.3258	6.6926
2.3195	6.6282
2.3133	6.594
2.3071	6.5432
2.301	6.5173
2.2949	6.4639
2.2888	6.427
2.2828	6.3879
2.2767	6.3391
2.2708	6.3025
2.2648	6.2646
2.2589	6.2366
2.253	6.1987
2.2471	6.1799
2.2413	6.1391
2.2355	6.0891
2.2297	6.0835
2.224	6.0471
2.2183	6.0176
2.2126	5.9773
2.207	5.9336
2.2013	5.9087
2.1957	5.8901
2.1902	5.8652
2.1846	5.8506
2.1791	5.7959
2.1736	5.7998
2.1682	5.7507
2.1628	5.7285
2.1574	5.7209
2.152	5.6965
2.1466	5.6643
2.1413	5.6562
2.136	5.6189
2.1308	5.6013
2.1255	5.5874
2.1203	5.6011
2.1151	5.5571
2.11	5.5613
2.1048	5.5229
2.0997	5.5117
2.0946	5.4917
2.0895	5.5063
2.0845	5.4814
2.0795	5.5163
