Name: Talc Mg3Si4O10(OH)2
Type: Mineral
Class: Silicates
Subclass: Phyllosilicates (Sheets silicates);  (Talc/Pyrophyllite Group)
Particle Size: Coarse  (75 - 250  Micrometers)
Sample No.: talc.1
Owner: JHU
Wavelength Range: IR
Origin: Feiser Mine, Ruby Mountains, Montana, USA via Jim Crowley,
Description: The hand sample was massive, compact, translucent,
Measurement: Bidirectional reflectance
X Units: Wavelength (micrometers)
Y Units: Reflectance (percent)
wavelength	value
25.0442	3.3867
24.3388	3.8271
23.6719	4.3179
23.0407	4.4712
22.4422	5.2082
21.8741	5.8989
21.334	7.5932
20.8199	8.5598
20.33	8.8628
19.8627	7.6618
19.4163	8.7739
18.9896	9.2173
18.5812	8.4963
18.19	7.1631
17.815	7.1582
17.4551	6.1821
17.1094	3.0132
16.7772	1.2202
16.4576	1.1968
16.15	1.3345
15.8537	1.4751
15.568	1.6785
15.2925	1.9734
15.0265	2.959
14.7697	4.8984
14.5214	4.4578
14.2814	1.3833
14.0492	1.1121
13.8244	1.2805
13.6067	1.4126
13.3957	1.4856
13.1912	1.5439
12.9929	1.5586
12.8004	1.5366
12.6135	1.5774
12.432	1.6177
12.2557	1.6648
12.0843	1.7175
11.9176	1.7751
11.7555	1.8477
11.5977	1.8464
11.444	1.8696
11.2944	1.9123
11.1487	1.978
11.0067	2.0432
10.8682	2.1265
10.7332	2.1936
10.6015	2.3225
10.473	2.4546
10.3476	2.6099
10.2251	2.7915
10.1056	3.0759
9.98873	3.5622
9.87458	4.813
9.763	6.447
9.65392	7.2783
9.54724	7.3938
9.44291	6.1841
9.34082	6.4394
9.24091	6.8401
9.14312	7.0898
9.04739	7.5012
8.95363	7.7046
8.8618	7.8198
8.77183	8.0871
8.68368	8.2261
8.59727	7.5574
8.51257	6.4468
8.42951	5.1216
8.34807	3.7917
8.26819	2.6226
8.18981	1.915
8.11292	1.5107
8.03745	1.3533
7.96337	1.2519
7.89064	1.2571
7.81924	1.1811
7.74911	1.0642
7.68023	0.9973
7.61256	1.0071
7.54608	1.0681
7.48074	1.1191
7.41653	1.1265
7.35341	1.136
7.29136	1.1653
7.23034	1.1191
7.17033	1.1267
7.11132	1.1794
7.05327	1.2429
6.99616	1.3171
6.93996	1.3987
6.88467	1.491
6.83024	1.5361
6.77667	1.7869
6.72393	1.9983
6.67201	2.1023
6.62089	2.0537
6.57054	1.9512
6.52095	1.978
6.4721	2.1377
6.42398	2.1631
6.37657	2.2068
6.32986	2.1956
6.28382	2.2041
6.23845	2.0933
6.19373	1.8174
6.14965	1.5718
6.10619	1.2317
6.06334	1.1045
6.02109	1.0859
5.97942	1.0342
5.93832	1.1924
5.89778	1.3682
5.8578	1.1802
5.81835	1.3005
5.77943	1.4846
5.74103	1.4951
5.70314	1.3967
5.66574	1.3162
5.62883	1.3735
5.5924	1.3008
5.55644	1.1829
5.52093	1.1374
5.48588	1.1128
5.45127	1.1814
5.41709	1.3137
5.38334	1.2869
5.35	1.2847
5.31708	1.3977
5.28456	1.4824
5.25243	1.4141
5.2207	1.2974
5.18934	1.366
5.15836	1.5354
5.12775	1.5986
5.09749	2.0332
5.0676	2.9282
5.03805	3.5198
5.00884	3.6838
4.97998	3.7087
4.95144	3.458
4.92322	3.5344
4.89533	4.0813
4.86775	4.4946
4.84048	4.6089
4.81351	4.7002
4.78684	4.8528
4.76047	5.2009
4.73439	5.3528
4.70859	5.1274
4.68306	5.2099
4.65782	5.3032
4.63284	5.5859
4.60814	6.3103
4.58369	6.8247
4.5595	7.0183
4.53557	7.1318
4.51188	7.1704
4.48845	7.1765
4.46525	7.1728
4.44229	7.3264
4.41957	7.7466
4.39708	8.0102
4.37481	8.2239
4.35277	8.3074
4.33096	8.3572
4.30935	8.3957
4.28797	8.4526
4.26679	8.5129
4.24583	8.5884
4.22506	8.6208
4.2045	8.6216
4.18414	8.6391
4.16398	8.6416
4.14401	8.664
4.12423	8.6821
4.10464	8.6831
4.08523	8.6648
4.066	8.6594
4.04696	8.6604
4.02809	8.7163
4.0094	8.8191
3.99088	8.8725
3.97253	8.893
3.95435	8.8884
3.93634	8.8664
3.91848	8.8711
3.90079	8.8867
3.88326	8.9067
3.86589	8.9548
3.84867	8.9902
3.8316	8.9968
3.81468	9.039
3.79791	9.0678
3.78129	9.1137
3.76482	9.1513
3.74848	9.1509
3.73229	9.1474
3.71624	9.113
3.70032	9.0696
3.68454	8.9192
3.6689	8.9446
3.65338	8.8718
3.638	8.8044
3.62275	8.7861
3.60762	8.7715
3.59262	8.7339
3.57775	8.6999
3.56299	8.6313
3.54836	8.5713
3.53385	8.4809
3.51945	8.3288
3.50517	8.1472
3.49101	7.9914
3.47696	7.9826
3.46303	8.0068
3.4492	7.8904
3.43549	7.7065
3.42188	7.3962
3.40838	7.1892
3.39499	7.0654
3.38171	6.7095
3.36852	6.1118
3.35544	5.0825
3.34246	6.1284
3.32958	5.8865
3.3168	4.7439
3.30411	4.8728
3.29153	5.906
3.27903	5.9565
3.26664	6.1658
3.25433	6.1208
3.24212	5.988
3.23	5.8059
3.21797	5.6299
3.20603	5.4846
3.19418	5.24
3.18241	5.0093
3.17074	4.791
3.15914	4.6047
3.14763	4.5647
3.13621	4.6802
3.12487	4.6238
3.11361	4.5061
3.10243	4.355
3.09133	4.2641
3.0803	4.155
3.06936	4.103
3.0585	4.0222
3.04771	3.9324
3.037	3.8152
3.02636	3.7817
3.0158	3.7392
3.00531	3.6435
2.99489	3.509
2.98454	3.4148
2.97427	3.3704
2.96407	3.2668
2.95393	3.2134
2.94387	3.1475
2.93387	3.1184
2.92394	3.0969
2.91408	3.0234
2.90429	3.0159
2.89456	2.9907
2.88489	2.9639
2.87529	2.9365
2.86576	2.9016
2.85628	2.8542
2.84687	2.7947
2.83752	2.7378
2.82823	2.616
2.81901	2.4189
2.80984	2.0752
2.80073	1.8843
2.79168	1.6204
2.78269	1.7092
2.77376	1.8044
2.76488	1.9248
2.75606	2.053
2.7473	2.0193
2.73859	1.7866
2.72994	1.228
2.72134	0.7505
2.7128	1.6445
2.70431	4.0727
2.69587	5.7978
2.68748	6.4768
2.67915	7.199
2.67087	8.352
2.66264	8.9133
2.65446	8.9665
2.64633	8.8786
2.63825	8.9441
2.63021	8.9944
2.62223	8.855
2.6143	8.8823
2.60641	8.6931
2.59857	8.5056
2.59078	8.4057
2.58304	7.9958
2.57534	7.6689
2.56768	7.8879
2.56008	7.9839
2.55251	7.9702
2.54499	8.4184
2.53752	7.9365
2.53009	7.708
2.5227	7.9184
2.51536	7.5154
2.50806	8.185
2.5008	7.656
2.49358	7.7612
2.4864	8.2656
2.47927	8.32
2.47218	7.0762
2.46512	6.1814
2.45811	6.8638
2.45114	7.3799
2.4442	7.6113
2.43731	7.562
2.43045	7.8305
2.42363	7.6059
2.41685	8.5307
2.41011	8.7724
2.40341	8.1938
2.39674	5.7441
2.39011	5.0015
2.38352	5.5132
2.37696	6.1787
2.37044	7.2563
2.36395	8.2148
2.35751	8.2556
2.35109	8.5913
2.34471	9.1792
2.33836	9.1833
2.33205	8.196
2.32578	5.6372
2.31953	4.4404
2.31332	2.1147
2.30714	2.9387
2.301	4.7436
2.29489	5.1841
2.28881	3.5283
2.28276	5.7627
2.27675	7.4316
2.27076	8.4887
2.26481	9.1928
2.25889	9.7265
2.253	10.0576
2.24714	10.2583
2.24131	10.3408
2.23551	10.0229
2.22974	9.6426
2.224	10.2973
2.21829	10.6928
2.21261	10.8672
2.20696	10.8703
2.20134	10.9082
2.19574	10.9094
2.19018	10.9121
2.18464	10.8254
2.17913	10.6347
2.17365	10.5749
2.16819	10.6711
2.16277	10.769
2.15737	10.8183
2.15199	10.8147
2.14665	10.7021
2.14133	10.5031
2.13603	10.5132
2.13077	10.4411
2.12552	10.4377
2.12031	10.8554
2.11512	10.6445
2.10995	11.0073
2.10481	10.9819
2.0997	10.9568
2.09461	10.8974
2.08954	10.7632
2.0845	10.8149
2.07948	10.498
