Name: Orthoclase KAlSi3O8
Type: Mineral
Class: Silicates
Subclass: Tectosilicates (Framework Silicates); (Feldspar Group)
Particle Size: Fine  (0-74 Micrometers)
Sample No.: orthocl.3
Owner: JHU
Wavelength Range: IR
Origin: Harris Farm Mica Mine, near Oliver, Goochland Co., Virginia
Description: The hand sample is a single 11.97 g fragment of a single
Measurement: Bidirectional reflectance
X Units: Wavelength (micrometers)
Y Units: Reflectance (percent)
wavelength	value
25.0442	2.2246
24.3388	2.0059
23.6719	2.2402
23.0407	2.4932
22.4422	2.4487
21.8741	1.9268
21.334	1.5395
20.8199	1.6179
20.33	1.9575
19.8627	2.3198
19.4163	2.3286
18.9896	2.3916
18.5812	1.9092
18.19	1.8601
17.815	1.9363
17.4551	2.0264
17.1094	2.0691
16.7772	2.2017
16.4576	2.1121
16.15	1.7427
15.8537	1.5491
15.568	1.3686
15.2925	1.3538
15.0265	1.5894
14.7697	1.9851
14.5214	2.1108
14.2814	1.7644
14.0492	1.4573
13.8244	1.2834
13.6067	1.1987
13.3957	1.2351
13.1912	1.3066
12.9929	1.2732
12.8004	1.2371
12.6135	1.3118
12.432	2.0557
12.2557	3.5901
12.0843	4.4897
11.9176	4.6194
11.7555	4.5476
11.5977	4.405
11.444	4.2139
11.2944	3.9934
11.1487	3.6807
11.0067	3.2768
10.8682	2.8994
10.7332	2.5354
10.6015	2.2244
10.473	2.021
10.3476	1.8613
10.2251	1.8525
10.1056	1.9265
9.98873	2.033
9.87458	2.1269
9.763	2.1597
9.65392	2.291
9.54724	2.447
9.44291	2.5334
9.34082	2.2461
9.24091	2.0776
9.14312	1.9841
9.04739	1.9646
8.95363	1.9446
8.8618	2.0884
8.77183	2.3623
8.68368	2.6206
8.59727	2.8225
8.51257	3.0474
8.42951	3.3479
8.34807	3.6011
8.26819	3.4607
8.18981	2.9641
8.11292	2.3215
8.03745	1.6282
7.96337	0.9853
7.89064	0.5725
7.81924	0.5115
7.74911	0.7417
7.68023	1.1374
7.61256	1.5886
7.54608	2.0405
7.48074	2.4402
7.41653	2.8281
7.35341	3.1982
7.29136	3.5847
7.23034	3.9624
7.17033	4.3345
7.11132	4.7168
7.05327	5.0115
6.99616	5.2114
6.93996	5.3474
6.88467	5.447
6.83024	5.5351
6.77667	5.6782
6.72393	5.8489
6.67201	6.0058
6.62089	6.1037
6.57054	6.1704
6.52095	6.1875
6.4721	6.1301
6.42398	6.01
6.37657	5.8611
6.32986	5.7368
6.28382	5.6626
6.23845	5.6865
6.19373	5.782
6.14965	5.9204
6.10619	6.0691
6.06334	6.251
6.02109	6.4072
5.97942	6.5537
5.93832	6.5903
5.89778	6.5752
5.8578	6.4717
5.81835	6.3137
5.77943	6.1699
5.74103	6.0466
5.70314	5.9087
5.66574	5.8003
5.62883	5.811
5.5924	5.9829
5.55644	6.2873
5.52093	6.6907
5.48588	7.0893
5.45127	7.4558
5.41709	7.7561
5.38334	8.0227
5.35	8.2427
5.31708	8.4963
5.28456	8.799
5.25243	9.2014
5.2207	9.7075
5.18934	10.3008
5.15836	10.8879
5.12775	11.4812
5.09749	12.05
5.0676	12.5937
5.03805	13.0002
5.00884	13.2588
4.97998	13.3161
4.95144	13.2111
4.92322	13.062
4.89533	12.9609
4.86775	12.9131
4.84048	12.9287
4.81351	12.9575
4.78684	12.9726
4.76047	13.0056
4.73439	13.0254
4.70859	13.0293
4.68306	13.0402
4.65782	13.1403
4.63284	13.3239
4.60814	13.5549
4.58369	13.8444
4.5595	14.1772
4.53557	14.5202
4.51188	14.8379
4.48845	15.1496
4.46525	15.4416
4.44229	15.7492
4.41957	16.0207
4.39708	16.2783
4.37481	16.5485
4.35277	16.7839
4.33096	17.0354
4.30935	17.25
4.28797	17.4567
4.26679	17.6311
4.24583	17.7824
4.22506	17.8896
4.2045	17.9748
4.18414	18.0385
4.16398	18.0815
4.14401	18.1086
4.12423	18.1276
4.10464	18.144
4.08523	18.174
4.066	18.2048
4.04696	18.2182
4.02809	18.2543
4.0094	18.2841
3.99088	18.2993
3.97253	18.3276
3.95435	18.3679
3.93634	18.4245
3.91848	18.4482
3.90079	18.5034
3.88326	18.5087
3.86589	18.5339
3.84867	18.5468
3.8316	18.5673
3.81468	18.5971
3.79791	18.614
3.78129	18.6059
3.76482	18.6196
3.74848	18.6203
3.73229	18.6191
3.71624	18.6084
3.70032	18.5913
3.68454	18.5629
3.6689	18.5627
3.65338	18.5566
3.638	18.5449
3.62275	18.5146
3.60762	18.4812
3.59262	18.4714
3.57775	18.4279
3.56299	18.3806
3.54836	18.3295
3.53385	18.2536
3.51945	18.1105
3.50517	17.7434
3.49101	17.7624
3.47696	17.8085
3.46303	17.8249
3.4492	17.708
3.43549	17.5449
3.42188	17.1562
3.40838	17.144
3.39499	17.4235
3.38171	17.4431
3.36852	17.4748
3.35544	17.5666
3.34246	17.6652
3.32958	17.674
3.3168	17.6372
3.30411	17.6123
3.29153	17.5698
3.27903	17.5266
3.26664	17.4755
3.25433	17.4309
3.24212	17.3945
3.23	17.3562
3.21797	17.3269
3.20603	17.2856
3.19418	17.268
3.18241	17.2219
3.17074	17.1606
3.15914	17.1284
3.14763	17.0703
3.13621	17.0009
3.12487	16.9592
3.11361	16.9333
3.10243	16.8916
3.09133	16.8635
3.0803	16.8149
3.06936	16.812
3.0585	16.769
3.04771	16.7639
3.037	16.7387
3.02636	16.7343
3.0158	16.7251
3.00531	16.7067
2.99489	16.7251
2.98454	16.7634
2.97427	16.7412
2.96407	16.7336
2.95393	16.7255
2.94387	16.7417
2.93387	16.7448
2.92394	16.7529
2.91408	16.7937
2.90429	16.8559
2.89456	16.9091
2.88489	16.9658
2.87529	17.0444
2.86576	17.1167
2.85628	17.2265
2.84687	17.3159
2.83752	17.3969
2.82823	17.4946
2.81901	17.5803
2.80984	17.6689
2.80073	17.7744
2.79168	17.8706
2.78269	17.9511
2.77376	18.0668
2.76488	18.1601
2.75606	18.3056
2.7473	18.6176
2.73859	18.811
2.72994	19.0351
2.72134	19.247
2.7128	19.4609
2.70431	19.5009
2.69587	19.7978
2.68748	20.0336
2.67915	20.1689
2.67087	20.2929
2.66264	20.4287
2.65446	20.4421
2.64633	20.4558
2.63825	20.5048
2.63021	20.4997
2.62223	20.5061
2.6143	20.5256
2.60641	20.4934
2.59857	20.5783
2.59078	20.5949
2.58304	20.5766
2.57534	20.5947
2.56768	20.6074
2.56008	20.6125
2.55251	20.5852
2.54499	20.6191
2.53752	20.59
2.53009	20.6018
2.5227	20.5717
2.51536	20.559
2.50806	20.6125
2.5008	20.5776
2.49358	20.5439
2.4864	20.581
2.47927	20.5949
2.47218	20.5849
2.46512	20.5224
2.45811	20.5546
2.45114	20.5624
2.4442	20.5053
2.43731	20.5292
2.43045	20.5483
2.42363	20.5571
2.41685	20.5373
2.41011	20.5449
2.40341	20.5219
2.39674	20.5041
2.39011	20.4904
2.38352	20.4855
2.37696	20.4699
2.37044	20.4904
2.36395	20.4396
2.35751	20.4182
2.35109	20.4443
2.34471	20.4416
2.33836	20.3811
2.33205	20.3369
2.32578	20.3544
2.31953	20.3391
2.31332	20.3068
2.30714	20.2658
2.301	20.2707
2.29489	20.2717
2.28881	20.2697
2.28276	20.1957
2.27675	20.2285
2.27076	20.1635
2.26481	20.1669
2.25889	20.1899
2.253	20.1455
2.24714	20.1215
2.24131	20.1201
2.23551	20.1611
2.22974	20.0649
2.224	20.038
2.21829	20.0883
2.21261	20.0791
2.20696	20.0004
2.20134	20.04
2.19574	20.0112
2.19018	20.039
2.18464	20.0043
2.17913	20.0039
2.17365	19.9687
2.16819	20.0082
2.16277	19.9868
2.15737	19.9814
2.15199	19.958
2.14665	19.8955
2.14133	19.8989
2.13603	19.9492
2.13077	19.8852
2.12552	19.9355
2.12031	19.9091
2.11512	19.9082
2.10995	19.8896
2.10481	19.8989
2.0997	19.8525
2.09461	19.8564
2.08954	19.936
2.0845	19.9042
2.07948	19.8867
