Name: Glauconitic Sandstone
Type: Rocks
Class: Sedimentary
Subclass: Sandstone
Particle Size: 0 - 75 Micrometers
Owner: JHU
Wavelength Range: All
Origin: Sample No. 364,  The Hunt and Salisbury Collection at the U.S.
Description: The sample is a well-sorted, medium fine-grained,
Measurement: Directional (10 Degree) Hemispherical Reflectance
X Units: Wavelength (micrometers)
Y Units: Reflectance (percent)
wavelength	value
14.983	3.4857
14.645	2.9093
14.321	2.0357
14.011	3.2813
13.715	3.7275
13.43	3.5515
13.158	3.1937
12.896	2.9249
12.644	2.5327
12.402	2.1569
12.169	2.5564
11.945	3.8089
11.729	5.1413
11.52	5.1479
11.319	4.8258
11.125	4.4289
10.937	3.8492
10.755	3.6953
10.58	3.6643
10.41	3.5719
10.245	3.413
10.086	3.3997
9.931	3.5456
9.781	3.7367
9.636	4.2369
9.495	4.4107
9.358	5.8851
9.225	6.9434
9.095	7.045
8.969	6.9721
8.847	6.8326
8.727	6.4165
8.612	5.3783
8.499	6.6908
8.389	6.925
8.281	7.9085
8.177	9.425
8.075	7.7695
7.976	6.2098
7.879	4.8062
7.784	4.4353
7.692	4.6468
7.601	4.6139
7.513	4.8895
7.427	5.0669
7.343	5.1465
7.261	5.3492
7.18	5.506
7.102	5.4558
7.025	5.3381
6.949	5.7636
6.875	6.5188
6.803	7.3077
6.733	7.6487
6.663	8.321
6.596	8.7721
6.529	9.5122
6.464	11.837
6.4	11.784
6.338	10.333
6.276	8.5853
6.216	7.3882
6.157	8.1836
6.099	9.757
6.042	10.307
5.986	10.548
5.931	10.285
5.878	12.213
5.825	14.407
5.773	15.817
5.722	16.719
5.672	16.15
5.623	13.59
5.574	12.131
5.527	13.928
5.48	16.02
5.434	16.501
5.389	13.116
5.345	10.967
5.301	11.897
5.258	14.519
5.215	18.76
5.174	20.048
5.133	20.051
5.093	19.802
5.053	19.027
5.014	18.933
4.975	20.744
4.937	23.858
4.9	27.655
4.863	31.711
4.827	33.499
4.791	34.536
4.756	35.61
4.721	36.464
4.687	36.403
4.654	37.639
4.62	39.221
4.588	40.263
4.556	40.767
4.524	40.532
4.492	39.694
4.461	39.875
4.431	40.983
4.401	42.117
4.371	43.294
4.342	44.111
4.313	44.384
4.284	44.408
4.256	44.762
4.229	45.117
4.201	45.367
4.174	45.689
4.147	45.964
4.121	46.195
4.095	46.361
4.069	46.298
4.044	45.613
4.019	44.009
3.994	42.536
3.97	41.645
3.945	43.336
3.921	44.444
3.898	44.459
3.875	44.363
3.852	44.253
3.829	44.497
3.806	44.929
3.784	45.039
3.762	44.634
3.74	44.127
3.719	43.681
3.698	43.247
3.677	42.756
3.656	42.15
3.636	41.458
3.615	40.609
3.595	39.656
3.575	38.474
3.556	37.23
3.536	36.269
3.517	35.223
3.498	34.312
3.479	33.654
3.461	33.432
3.442	32.774
3.424	31.898
3.406	30.812
3.388	29.752
3.371	28.626
3.353	27.488
3.336	26.997
3.319	26.281
3.302	25.471
3.285	24.721
3.269	24.183
3.252	23.74
3.236	23.121
3.22	22.294
3.204	21.478
3.188	20.654
3.173	19.916
3.157	19.192
3.142	18.442
3.127	17.758
3.112	17.016
3.097	16.373
3.082	15.679
3.067	15.075
3.053	14.489
3.039	13.991
3.025	13.554
3.011	13.152
2.997	12.844
2.983	12.595
2.969	12.285
2.956	12.006
2.942	11.834
2.929	11.814
2.916	11.915
2.903	12.23
2.89	12.613
2.877	12.881
2.864	12.976
2.852	12.769
2.839	12.367
2.827	11.804
2.814	11.131
2.802	10.508
2.79	9.8354
2.778	8.4524
2.766	6.8712
2.755	6.4698
2.743	7.9899
2.731	11.067
2.72	19.143
2.708	30.833
2.697	37.77
2.686	43.742
2.675	45.947
2.664	47.234
2.653	49.401
2.642	50.242
2.632	49.637
2.621	49.792
2.61	50.22
2.6	50.312
2.59	50.542
2.579	51.149
2.569	51.455
2.559	51.768
2.549	52.082
2.539	52.304
2.529	52.351
2.519	52.392
2.509	52.303
2.5	52.237
2.49	52.207
2.481	52.243
2.471	52.245
2.462	52.163
2.452	52.079
2.443	52.011
2.434	52.158
2.425	52.527
2.416	52.905
2.407	53.21
2.398	53.306
2.389	53.237
2.38	53.011
2.372	52.777
2.363	52.523
2.354	52.256
2.346	52.365
2.337	52.868
2.329	53.526
2.321	54.125
2.312	54.684
2.304	55.024
2.296	55.326
2.288	55.414
2.28	55.407
2.272	55.207
2.264	54.803
2.256	54.631
2.248	54.703
2.24	54.841
2.233	54.648
2.225	54.318
2.217	53.75
2.21	53.38
2.202	53.292
2.195	53.761
2.187	54.727
2.18	55.705
2.173	56.315
2.166	56.72
2.158	56.95
2.151	57.021
2.144	57.075
2.137	57.038
2.13	57.035
2.123	56.976
2.116	57.008
2.109	57.01
2.102	57.091
2.095	57.164
2.089	57.212
2.082	57.261
2.06	57.427
2.028	56.745
1.996	55.54
1.964	54.59
1.932	53.565
1.9	54.742
1.868	54.024
1.836	54.928
1.804	54.678
1.772	53.788
1.74	53.52
1.708	53.343
1.676	52.724
1.644	52.16
1.612	51.544
1.58	50.968
1.548	50.485
1.516	49.715
1.484	48.793
1.452	48.025
1.42	46.72
1.388	45.96
1.356	45.183
1.324	44.563
1.292	43.424
1.26	42.806
1.228	42.001
1.196	40.301
1.164	38.73
1.132	38.274
1.1	37.797
1.068	37.304
1.036	36.978
1.004	36.317
0.972	35.905
0.94	35.483
0.908	35.004
0.876	35.63
0.844	37.35
0.812	39.97
0.795	40.497
0.787	39.98
0.779	40.136
0.771	39.528
0.763	39.138
0.755	38.848
0.747	38.902
0.739	38.552
0.731	38.508
0.723	38.077
0.715	37.828
0.707	37.769
0.699	37.748
0.691	37.837
0.683	37.929
0.675	38.029
0.667	38.144
0.659	37.981
0.651	37.894
0.643	38.184
0.635	38.083
0.627	37.974
0.619	38.13
0.611	37.772
0.603	37.752
0.595	38.082
0.587	37.884
0.579	37.844
0.571	38.067
0.563	37.357
0.555	36.16
0.547	36.035
0.539	35.344
0.531	34.861
0.523	33.82
0.515	33.102
0.507	31.921
0.499	31.102
0.491	29.827
0.483	29.138
0.475	28.393
0.467	27.608
0.459	27.228
0.451	26.609
0.443	25.753
0.435	24.621
0.427	23.37
0.419	22.134
0.411	21.145
0.403	20.107
