Name: Goethite a-Fe+3O(OH)
Type: Mineral
Class: Hydroxides
Subclass: (Goethite Group)
Particle Size: Coarse  (74-250 Micrometers)
Sample No.: goethite.1
Owner: JHU
Wavelength Range: IR
Origin: Sample from Montreal, Wisconsin via the Smithsonian
Description: The sample consisted of a 4 cm x 2 cm x 2 cm cluster of
Measurement: Bidirectional reflectance
X Units: Wavelength (micrometers)
Y Units: Reflectance (percent)
wavelength	value
25.0442	17.9309
24.3388	15.5019
23.6719	14.4604
23.0407	15.0632
22.4422	14.6748
21.8741	17.1223
21.334	17.8383
20.8199	17.1669
20.33	15.6262
19.8627	12.6259
19.4163	10.9343
18.9896	10.7448
18.5812	11.3364
18.19	11.6487
17.815	11.5874
17.4551	10.3335
17.1094	8.748
16.7772	7.7754
16.4576	7.2251
16.15	7.1113
15.8537	6.9765
15.568	6.5798
15.2925	5.7607
15.0265	4.5654
14.7697	3.2654
14.5214	2.4382
14.2814	2.5972
14.0492	2.8562
13.8244	3.1069
13.6067	3.3367
13.3957	3.5759
13.1912	3.9656
12.9929	4.4128
12.8004	5.0913
12.6135	6.3584
12.432	7.8371
12.2557	8.5039
12.0843	8.404
11.9176	7.0178
11.7555	4.8545
11.5977	3.9294
11.444	3.9289
11.2944	4.2471
11.1487	4.6631
11.0067	4.9802
10.8682	5.0957
10.7332	4.625
10.6015	3.3782
10.473	2.7253
10.3476	2.7642
10.2251	2.8525
10.1056	2.8994
9.98873	2.9602
9.87458	3.0266
9.763	3.0737
9.65392	3.1462
9.54724	3.2329
9.44291	3.2812
9.34082	3.3208
9.24091	3.3579
9.14312	3.3594
9.04739	3.3684
8.95363	3.3904
8.8618	3.408
8.77183	3.4424
8.68368	3.5137
8.59727	3.6423
8.51257	3.7449
8.42951	3.9082
8.34807	4.0615
8.26819	4.175
8.18981	4.3061
8.11292	4.4167
8.03745	4.5044
7.96337	4.6875
7.89064	4.9421
7.81924	5.1221
7.74911	5.1816
7.68023	5.2092
7.61256	5.396
7.54608	5.5249
7.48074	5.5788
7.41653	5.7566
7.35341	5.9548
7.29136	6.1011
7.23034	6.2431
7.17033	6.3489
7.11132	6.2793
7.05327	6.1172
6.99616	6.0749
6.93996	6.1272
6.88467	6.1826
6.83024	6.1111
6.77667	6.0744
6.72393	6.1162
6.67201	6.1975
6.62089	6.2524
6.57054	6.2309
6.52095	6.1418
6.4721	5.959
6.42398	5.7158
6.37657	5.5464
6.32986	5.3682
6.28382	5.1697
6.23845	4.9316
6.19373	4.6721
6.14965	4.4353
6.10619	4.2268
6.06334	4.0471
6.02109	3.9023
5.97942	3.9304
5.93832	4.1269
5.89778	4.2871
5.8578	4.3806
5.81835	4.354
5.77943	4.3215
5.74103	4.227
5.70314	4.1177
5.66574	4.0237
5.62883	3.9338
5.5924	3.8872
5.55644	3.8733
5.52093	3.9336
5.48588	4.0596
5.45127	4.2383
5.41709	4.4321
5.38334	4.5859
5.35	4.6814
5.31708	4.7107
5.28456	4.6938
5.25243	4.6352
5.2207	4.6013
5.18934	4.6008
5.15836	4.6133
5.12775	4.6399
5.09749	4.6467
5.0676	4.6389
5.03805	4.6767
5.00884	4.6963
4.97998	4.7209
4.95144	4.7624
4.92322	4.8059
4.89533	4.8437
4.86775	4.8904
4.84048	4.9348
4.81351	4.9648
4.78684	4.9919
4.76047	5.0303
4.73439	5.064
4.70859	5.0945
4.68306	5.126
4.65782	5.1506
4.63284	5.1787
4.60814	5.2056
4.58369	5.2295
4.5595	5.2344
4.53557	5.23
4.51188	5.2175
4.48845	5.2068
4.46525	5.1785
4.44229	5.1577
4.41957	5.1343
4.39708	5.1182
4.37481	5.1145
4.35277	5.116
4.33096	5.1013
4.30935	5.073
4.28797	5.0547
4.26679	5.0637
4.24583	5.0593
4.22506	5.0386
4.2045	5.0232
4.18414	4.9648
4.16398	4.9148
4.14401	4.8677
4.12423	4.8005
4.10464	4.7117
4.08523	4.6435
4.066	4.6006
4.04696	4.5774
4.02809	4.5737
4.0094	4.5723
3.99088	4.5727
3.97253	4.5503
3.95435	4.5278
3.93634	4.499
3.91848	4.4719
3.90079	4.4299
3.88326	4.3972
3.86589	4.343
3.84867	4.3132
3.8316	4.2937
3.81468	4.2805
3.79791	4.2512
3.78129	4.2292
3.76482	4.1953
3.74848	4.1565
3.73229	4.1391
3.71624	4.1016
3.70032	4.0723
3.68454	4.0239
3.6689	3.9973
3.65338	3.9626
3.638	3.9473
3.62275	3.9285
3.60762	3.8872
3.59262	3.8862
3.57775	3.8823
3.56299	3.8777
3.54836	3.8889
3.53385	3.8682
3.51945	3.8625
3.50517	3.8633
3.49101	3.8608
3.47696	3.855
3.46303	3.8423
3.4492	3.833
3.43549	3.8442
3.42188	3.8435
3.40838	3.8406
3.39499	3.813
3.38171	3.8032
3.36852	3.7969
3.35544	3.7771
3.34246	3.781
3.32958	3.7786
3.3168	3.782
3.30411	3.7834
3.29153	3.7861
3.27903	3.7947
3.26664	3.7844
3.25433	3.7805
3.24212	3.739
3.23	3.7097
3.21797	3.6138
3.20603	3.54
3.19418	3.4319
3.18241	3.3191
3.17074	3.2493
3.15914	3.1748
3.14763	3.116
3.13621	3.0513
3.12487	3.0073
3.11361	2.9731
3.10243	2.9563
3.09133	2.9165
3.0803	2.9033
3.06936	2.9033
3.0585	2.8926
3.04771	2.8852
3.037	2.8928
3.02636	2.9084
3.0158	2.8967
3.00531	2.9138
2.99489	2.9126
2.98454	2.9419
2.97427	2.937
2.96407	2.9661
2.95393	2.9631
2.94387	3.0002
2.93387	3.0225
2.92394	3.0503
2.91408	3.0659
2.90429	3.1084
2.89456	3.1311
2.88489	3.176
2.87529	3.2329
2.86576	3.2659
2.85628	3.3303
2.84687	3.397
2.83752	3.4824
2.82823	3.5286
2.81901	3.6045
2.80984	3.7217
2.80073	3.8071
2.79168	3.9436
2.78269	4.0825
2.77376	4.2639
2.76488	4.456
2.75606	4.6755
2.7473	4.9353
2.73859	5.2046
2.72994	5.5293
2.72134	5.8318
2.7128	6.1326
2.70431	6.3818
2.69587	6.6247
2.68748	6.8415
2.67915	7.0566
2.67087	7.2568
2.66264	7.4658
2.65446	7.6838
2.64633	7.8965
2.63825	8.0698
2.63021	8.1897
2.62223	8.3594
2.6143	8.5251
2.60641	8.6057
2.59857	8.706
2.59078	8.7929
2.58304	8.8493
2.57534	8.8603
2.56768	8.821
2.56008	8.7722
2.55251	8.6172
2.54499	8.4326
2.53752	8.2888
2.53009	8.1081
2.5227	8.0054
2.51536	7.9731
2.50806	7.9673
2.5008	7.998
2.49358	8.0273
2.4864	8.0835
2.47927	8.1477
2.47218	8.185
2.46512	8.2363
2.45811	8.258
2.45114	8.1987
2.4442	8.0876
2.43731	8.0141
2.43045	7.9446
2.42363	7.8808
2.41685	7.8769
2.41011	7.9492
2.40341	8.1714
2.39674	8.4131
2.39011	8.7014
2.38352	8.9355
2.37696	9.2058
2.37044	9.3506
2.36395	9.4411
2.35751	9.5249
2.35109	9.5979
2.34471	9.6367
2.33836	9.6631
2.33205	9.7185
2.32578	9.7468
2.31953	9.789
2.31332	9.8681
2.30714	9.875
2.301	9.9416
2.29489	9.958
2.28881	9.9599
2.28276	9.9248
2.27675	9.9404
2.27076	9.9734
2.26481	9.9929
2.25889	10.0044
2.253	10.0024
2.24714	10.0359
2.24131	10.1426
2.23551	10.2356
2.22974	10.2888
2.224	10.3105
2.21829	10.3862
2.21261	10.3918
2.20696	10.4228
2.20134	10.4311
2.19574	10.4751
2.19018	10.48
2.18464	10.467
2.17913	10.5271
2.17365	10.5649
2.16819	10.5776
2.16277	10.5927
2.15737	10.6372
2.15199	10.603
2.14665	10.5796
2.14133	10.6343
2.13603	10.6128
2.13077	10.6704
2.12552	10.6277
2.12031	10.6655
2.11512	10.5854
2.10995	10.605
2.10481	10.541
2.0997	10.5591
2.09461	10.5583
2.08954	10.4897
2.0845	10.5439
2.07948	10.4516
