Name: Karoonda2
Type: Stony Meteorites
Class: Carbonaceous Chondrite
Subclass: C4 (CV/CO)
Particle Size: 0-75 micrometers
Sample No.: Karoonda2
Owner: JHU
Origin: Meteorite seen to fall in Australia in 1930.  Arizona State University
Description: None.
Measurement: Bidirectional reflectance
X Units: Wavelength (micrometers)
Y Units: Reflectance (percent)
wavelength	value
25.044	0.9349
24.339	0.8627
23.672	0.816
23.041	0.5183
22.442	0.4947
21.874	0.5284
21.334	0.5787
20.82	0.6605
20.33	0.7474
19.863	0.7474
19.416	0.8049
18.99	0.8154
18.581	0.8206
18.19	0.735
17.815	0.6841
17.455	0.6293
17.109	0.5856
16.777	0.577
16.458	0.6055
16.15	0.6438
15.854	0.6285
15.568	0.6229
15.292	0.6802
15.027	0.7501
14.77	0.8153
14.521	0.9489
14.281	1.0582
14.049	1.1673
13.824	1.2491
13.607	1.3257
13.396	1.4004
13.191	1.4375
12.993	1.5024
12.8	1.5339
12.614	1.5134
12.432	1.4142
12.256	1.241
12.084	0.9686
11.918	0.7679
11.755	0.8552
11.598	0.9534
11.444	1.1434
11.294	1.2596
11.149	1.2618
11.007	1.2554
10.868	1.2655
10.733	1.2684
10.602	1.1307
10.473	0.9286
10.348	0.8873
10.225	0.9149
10.106	0.8723
9.9887	0.8854
9.8746	0.9182
9.763	0.9649
9.6539	0.9822
9.5472	0.9756
9.4429	0.9134
9.3408	0.772
9.2409	0.6664
9.1431	0.6277
9.0474	0.6618
8.9536	0.7164
8.8618	0.7668
8.7718	0.81
8.6837	0.8515
8.5973	0.9208
8.5126	1.0141
8.4295	1.1324
8.3481	1.2661
8.2682	1.3889
8.1898	1.4785
8.1129	1.5447
8.0374	1.5992
7.9634	1.6447
7.8906	1.6818
7.8192	1.717
7.7491	1.7496
7.6802	1.7737
7.6126	1.7916
7.5461	1.8283
7.4807	1.8674
7.4165	1.9008
7.3534	1.9305
7.2914	1.9555
7.2303	1.9743
7.1703	1.9929
7.1113	2.0064
7.0533	2.0324
6.9962	2.0563
6.94	2.0707
6.8847	2.0812
6.8302	2.0892
6.7767	2.102
6.7239	2.1141
6.672	2.1204
6.6209	2.1199
6.5705	2.1204
6.5209	2.1211
6.4721	2.1202
6.424	2.116
6.3766	2.123
6.3299	2.1244
6.2838	2.1274
6.2385	2.1315
6.1937	2.1288
6.1496	2.1258
6.1062	2.095
6.0633	2.0381
6.0211	2.0128
5.9794	2.0305
5.9383	2.046
5.8978	2.0556
5.8578	2.0701
5.8184	2.076
5.7794	2.0796
5.741	2.0493
5.7031	2.0035
5.6657	1.9787
5.6288	1.9965
5.5924	2.0338
5.5564	2.0549
5.5209	2.0585
5.4859	2.0615
5.4513	2.0749
5.4171	2.0912
5.3833	2.1061
5.35	2.1143
5.3171	2.1231
5.2846	2.1288
5.2524	2.1385
5.2207	2.1507
5.1893	2.1628
5.1584	2.1743
5.1277	2.1793
5.0975	2.1834
5.0676	2.1819
5.038	2.1849
5.0088	2.1851
4.98	2.1926
4.9514	2.2086
4.9232	2.2244
4.8953	2.2373
4.8678	2.2422
4.8405	2.2472
4.8135	2.2491
4.7868	2.2533
4.7605	2.2541
4.7344	2.2544
4.7086	2.2551
4.6831	2.2585
4.6578	2.2634
4.6328	2.2659
4.6081	2.2689
4.5837	2.2732
4.5595	2.2739
4.5356	2.2761
4.5119	2.2772
4.4884	2.2817
4.4652	2.2784
4.4423	2.281
4.4196	2.2824
4.3971	2.2781
4.3748	2.2761
4.3528	2.2714
4.331	2.2573
4.3094	2.2253
4.288	2.1827
4.2668	2.1616
4.2458	2.1728
4.2251	2.202
4.2045	2.246
4.1841	2.2579
4.164	2.2574
4.144	2.2552
4.1242	2.254
4.1046	2.2549
4.0852	2.253
4.066	2.252
4.047	2.2505
4.0281	2.2487
4.0094	2.2489
3.9909	2.2494
3.9725	2.246
3.9544	2.2425
3.9363	2.2411
3.9185	2.2425
3.9008	2.241
3.8833	2.2347
3.8659	2.2315
3.8487	2.2283
3.8316	2.2257
3.8147	2.2214
3.7979	2.2161
3.7813	2.217
3.7648	2.2112
3.7485	2.2071
3.7323	2.2048
3.7162	2.1976
3.7003	2.1946
3.6845	2.1929
3.6689	2.1871
3.6534	2.1851
3.638	2.1811
3.6227	2.1764
3.6076	2.1758
3.5926	2.1733
3.5777	2.1685
3.563	2.166
3.5484	2.1594
3.5338	2.1587
3.5195	2.1552
3.5052	2.1431
3.491	2.142
3.477	2.1387
3.463	2.1332
3.4492	2.1288
3.4355	2.1208
3.4219	2.1117
3.4084	2.1055
3.395	2.1049
3.3817	2.1001
3.3685	2.0997
3.3554	2.0981
3.3425	2.0931
3.3296	2.0889
3.3168	2.0856
3.3041	2.0789
3.2915	2.0752
3.279	2.0686
3.2666	2.0649
3.2543	2.0576
3.2421	2.0564
3.23	2.0499
3.218	2.0498
3.206	2.0453
3.1942	2.0409
3.1824	2.0323
3.1707	2.0323
3.1591	2.025
3.1476	2.0192
3.1362	2.0122
3.1249	2.0071
3.1136	2.005
3.1024	2.0021
3.0913	1.9947
3.0803	1.9896
3.0694	1.9871
3.0585	1.9791
3.0477	1.9723
3.037	1.9706
3.0264	1.965
3.0158	1.96
3.0053	1.955
2.9949	1.9505
2.9845	1.9412
2.9743	1.9407
2.9641	1.9326
2.9539	1.9287
2.9439	1.9222
2.9339	1.9164
2.9239	1.9145
2.9141	1.9119
2.9043	1.9042
2.8946	1.8989
2.8849	1.8954
2.8753	1.8877
2.8658	1.8844
2.8563	1.8809
2.8469	1.8738
2.8375	1.8696
2.8282	1.8644
2.819	1.8575
2.8098	1.8514
2.8007	1.8492
2.7917	1.8493
2.7827	1.8457
2.7738	1.8453
2.7649	1.8464
2.7561	1.8398
2.7473	1.8412
2.7386	1.8355
2.7299	1.8354
2.7213	1.8323
2.7128	1.8282
2.7043	1.8287
2.6959	1.8239
2.6875	1.8242
2.6791	1.8166
2.6709	1.8115
2.6626	1.8055
2.6545	1.8065
2.6463	1.7984
2.6382	1.7899
2.6302	1.7854
2.6222	1.7781
2.6143	1.7698
2.6064	1.7715
2.5986	1.7618
2.5908	1.759
2.583	1.7519
2.5753	1.7424
2.5677	1.7439
2.5601	1.7328
2.5525	1.7302
2.545	1.7314
2.5375	1.721
2.5301	1.7223
2.5227	1.7128
2.5154	1.7019
2.5081	1.7035
2.5008	1.6934
2.4936	1.6942
2.4864	1.6896
2.4793	1.6815
2.4722	1.6751
2.4651	1.6768
2.4581	1.6702
2.4511	1.6572
2.4442	1.6572
2.4373	1.6478
2.4305	1.6353
2.4236	1.6331
2.4169	1.6285
2.4101	1.6254
2.4034	1.62
2.3967	1.6185
2.3901	1.612
2.3835	1.6056
2.377	1.6092
2.3704	1.5992
2.364	1.5919
2.3575	1.5919
2.3511	1.5889
2.3447	1.5866
2.3384	1.5894
2.3321	1.5814
2.3258	1.5866
2.3195	1.5737
2.3133	1.5754
2.3071	1.5705
2.301	1.571
2.2949	1.5633
2.2888	1.5678
2.2828	1.5692
2.2767	1.5577
2.2708	1.5562
2.2648	1.5455
2.2589	1.5531
2.253	1.5384
2.2471	1.5433
2.2413	1.5328
2.2355	1.5301
2.2297	1.5353
2.224	1.5388
2.2183	1.5379
2.2126	1.5319
2.207	1.5297
2.2013	1.5367
2.1957	1.5375
2.1902	1.529
2.1846	1.5307
2.1791	1.5328
2.1736	1.5187
2.1682	1.5309
2.1628	1.5369
2.1574	1.5317
2.152	1.5413
2.1466	1.5362
2.1413	1.5377
2.136	1.5297
2.1308	1.5375
2.1255	1.5259
2.1203	1.5241
2.1151	1.5353
2.11	1.5308
2.1048	1.5383
2.0997	1.5402
2.0946	1.5467
2.0895	1.5391
2.0845	1.5417
2.0795	1.5314
