Name: Mordenite (Ca,Na2,K2)Al2Si10O24.7H2O
Type: Mineral
Class: Silicates
Subclass: Tectosilicates (Framework Silicates); (ZeoliteGroup)
Particle Size: Fine  (Less than 2 Micrometers)
Sample No.: morden.1
Owner: JHU
Wavelength Range: IR
Origin: Union Pass, Arizona via W. J. Ehmann #10
Description: The sample consisted of small transparent crystals of
Measurement: Transmission
X Units: Wavelength (micrometers)
Y Units: Transmittance (percent)
wavelength	value
25.0442	51.1483
24.3388	44.4257
23.6719	38.0155
23.0407	32.0702
22.4422	27.5683
21.8741	26.247
21.334	27.7109
20.8199	34.0634
20.33	44.6073
19.8627	52.996
19.4163	57.4242
18.9896	59.6468
18.5812	61.2401
18.19	60.9452
17.815	60.5531
17.4551	59.8924
17.1094	58.4925
16.7772	61.1502
16.4576	62.9202
16.15	62.1097
15.8537	61.2503
15.568	63.7313
15.2925	66.5452
15.0265	67.9988
14.7697	68.347
14.5214	67.8494
14.2814	67.0887
14.0492	66.0296
13.8244	65.7393
13.6067	66.159
13.3957	67.2205
13.1912	67.994
12.9929	67.7498
12.8004	66.1834
12.6135	65.6485
12.432	67.1544
12.2557	71.1778
12.0843	75.9903
11.9176	76.9393
11.7555	73.9324
11.5977	69.1007
11.444	64.3065
11.2944	61.5916
11.1487	60.1329
11.0067	59.514
10.8682	59.1712
10.7332	58.202
10.6015	55.9901
10.473	51.7081
10.3476	45.0519
10.2251	36.1723
10.1056	26.6882
9.98873	18.5131
9.87458	12.6318
9.763	8.7541
9.65392	6.3042
9.54724	4.9485
9.44291	4.3926
9.34082	4.4182
9.24091	5.0742
9.14312	6.4521
9.04739	8.6343
8.95363	11.039
8.8618	13.0405
8.77183	14.6313
8.68368	16.2861
8.59727	18.2124
8.51257	20.402
8.42951	22.9299
8.34807	26.0019
8.26819	29.2721
8.18981	32.8891
8.11292	40.7582
8.03745	52.3846
7.96337	61.0599
7.89064	66.4078
7.81924	70.0252
7.74911	72.5638
7.68023	74.5076
7.61256	76.1011
7.54608	77.429
7.48074	78.5501
7.41653	79.469
7.35341	80.0818
7.29136	80.6082
7.23034	80.9568
7.17033	80.5745
7.11132	80.7644
7.05327	81.6121
6.99616	82.0144
6.93996	82.3181
6.88467	82.4329
6.83024	82.3601
6.77667	82.8098
6.72393	83.6148
6.67201	84.4383
6.62089	84.9422
6.57054	85.3611
6.52095	85.3719
6.4721	85.3621
6.42398	85.3977
6.37657	85.0227
6.32986	84.3069
6.28382	83.3435
6.23845	82.3982
6.19373	79.7842
6.14965	75.0447
6.10619	74.3177
6.06334	75.2222
6.02109	76.3519
5.97942	78.5389
5.93832	81.1853
5.89778	83.5642
5.8578	84.906
5.81835	85.9436
5.77943	86.2962
5.74103	86.658
5.70314	86.8714
5.66574	86.9231
5.62883	87.0618
5.5924	87.0872
5.55644	87.1868
5.52093	87.2268
5.48588	87.2224
5.45127	87.2874
5.41709	87.4302
5.38334	87.4373
5.35	87.5413
5.31708	87.6072
5.28456	87.7688
5.25243	87.9119
5.2207	88.0159
5.18934	88.1028
5.15836	88.2385
5.12775	88.3191
5.09749	88.3513
5.0676	88.4446
5.03805	88.5134
5.00884	88.5559
4.97998	88.583
4.95144	88.6836
4.92322	88.8057
4.89533	88.8584
4.86775	88.9321
4.84048	88.9229
4.81351	88.959
4.78684	88.9744
4.76047	88.9319
4.73439	88.9219
4.70859	88.9016
4.68306	88.8477
4.65782	88.8711
4.63284	88.8709
4.60814	88.916
4.58369	88.9287
4.5595	88.9248
4.53557	88.8836
4.51188	88.8692
4.48845	88.9158
4.46525	88.8606
4.44229	88.8892
4.41957	88.8777
4.39708	88.9107
4.37481	88.9453
4.35277	88.9539
4.33096	89.0088
4.30935	88.9981
4.28797	88.9744
4.26679	88.9832
4.24583	89.0137
4.22506	89.0652
4.2045	89.0557
4.18414	89.1033
4.16398	89.1184
4.14401	89.138
4.12423	89.1555
4.10464	89.1521
4.08523	89.1492
4.066	89.1799
4.04696	89.1592
4.02809	89.208
4.0094	89.138
3.99088	89.0984
3.97253	89.1375
3.95435	89.1035
3.93634	89.1348
3.91848	89.1609
3.90079	89.0632
3.88326	89.0359
3.86589	88.9197
3.84867	88.8975
3.8316	88.865
3.81468	88.8035
3.79791	88.7666
3.78129	88.7227
3.76482	88.6306
3.74848	88.5286
3.73229	88.4783
3.71624	88.3279
3.70032	88.168
3.68454	88.0579
3.6689	87.9177
3.65338	87.8164
3.638	87.7332
3.62275	87.5925
3.60762	87.4256
3.59262	87.2988
3.57775	87.1482
3.56299	86.9072
3.54836	86.6699
3.53385	86.4854
3.51945	86.1983
3.50517	85.576
3.49101	85.4268
3.47696	85.3469
3.46303	85.1074
3.4492	84.8064
3.43549	84.292
3.42188	83.4629
3.40838	83.0918
3.39499	83.1951
3.38171	82.9251
3.36852	82.6543
3.35544	82.3318
3.34246	81.9004
3.32958	81.4287
3.3168	80.9353
3.30411	80.5242
3.29153	80.0271
3.27903	79.4812
3.26664	78.9031
3.25433	78.2439
3.24212	77.5496
3.23	76.7374
3.21797	75.9188
3.20603	75.1795
3.19418	74.4756
3.18241	73.7413
3.17074	73.0145
3.15914	72.1815
3.14763	71.3318
3.13621	70.4842
3.12487	69.6497
3.11361	68.9232
3.10243	68.0418
3.09133	67.2718
3.0803	66.6737
3.06936	66.1278
3.0585	65.7049
3.04771	65.2108
3.037	64.7054
3.02636	64.2249
3.0158	63.6292
3.00531	62.9998
2.99489	62.4471
2.98454	62.0179
2.97427	61.5164
2.96407	61.3778
2.95393	61.0453
2.94387	60.9598
2.93387	60.9002
2.92394	60.7293
2.91408	60.8495
2.90429	61.096
2.89456	61.1331
2.88489	61.0985
2.87529	61.0067
2.86576	60.9764
2.85628	61.2347
2.84687	61.577
2.83752	62.1278
2.82823	62.5047
2.81901	62.9344
2.80984	63.0277
2.80073	63.2215
2.79168	63.2528
2.78269	63.4945
2.77376	63.8597
2.76488	64.4481
2.75606	65.6058
2.7473	66.807
2.73859	68.8709
2.72994	71.0687
2.72134	73.5003
2.7128	75.6253
2.70431	77.2112
2.69587	78.0022
2.68748	78.4715
2.67915	78.9456
2.67087	79.4339
2.66264	79.4339
2.65446	79.5608
2.64633	79.7151
2.63825	79.7615
2.63021	80.01
2.62223	79.8338
2.6143	79.9041
2.60641	79.9417
2.59857	79.9002
2.59078	79.971
2.58304	80.0975
2.57534	79.846
2.56768	79.7625
2.56008	79.8103
2.55251	79.6639
2.54499	79.6756
2.53752	79.8953
2.53009	79.8338
2.5227	79.6394
2.51536	79.5555
2.50806	79.5965
2.5008	79.6219
2.49358	79.49
2.4864	79.5135
2.47927	79.3631
2.47218	79.4119
2.46512	79.3963
2.45811	79.4764
2.45114	79.2635
2.4442	79.0965
2.43731	79.4353
2.43045	79.2889
2.42363	79.0916
2.41685	79.1492
2.41011	79.1502
2.40341	79.0232
2.39674	79.1219
2.39011	78.9334
2.38352	78.9539
2.37696	78.9139
2.37044	78.7664
2.36395	78.9666
2.35751	78.8846
2.35109	78.5672
2.34471	78.6658
2.33836	78.7342
2.33205	78.3709
2.32578	78.4773
2.31953	78.868
2.31332	78.6814
2.30714	78.4744
2.301	78.5242
2.29489	78.4109
2.28881	78.2391
2.28276	78.2537
2.27675	78.199
2.27076	78.1805
2.26481	78.2303
2.25889	78.2273
2.253	78.2078
2.24714	78.1023
2.24131	78.1717
2.23551	78.0467
2.22974	77.8826
2.224	77.9773
2.21829	77.8396
2.21261	78.032
2.20696	78.1336
2.20134	78.0779
2.19574	77.8396
2.19018	78.0086
2.18464	78.242
2.17913	78.0711
2.17365	77.9139
2.16819	77.8201
2.16277	77.9764
2.15737	78.0564
2.15199	77.7889
2.14665	77.7654
2.14133	78.1541
2.13603	77.867
2.13077	77.9959
2.12552	77.8709
2.12031	77.7459
2.11512	77.7381
2.10995	77.8611
2.10481	77.9041
2.0997	78.0271
2.09461	77.99
2.08954	77.7986
2.0845	77.9588
2.07948	77.7811
