Name: Barite, BaSO4
Type: Mineral
Class: Sulfates
Particle Size: Fine (less than 2 Micrometers)
Sample No.: barite.1
Owner: JHU
Wavelength Range: IR
Origin: Norma Vergo Sample from Carterville, Georgia.
Description: The pure white sample appeared to be pure barite with
Measurement: Transmission
X Units: Wavelength (micrometers)
Y Units: Transmittance (percent)
wavelength	value
25.044	96.3005
24.339	97.406
23.672	97.4099
23.041	97.1912
22.442	96.8923
21.874	96.6833
21.334	95.8904
20.82	95.5408
20.33	95.1443
19.863	94.3513
19.416	93.4539
18.99	92.1726
18.581	90.2127
18.19	87.9773
17.815	84.6277
17.455	79.6404
17.109	70.6336
16.777	49.1835
16.458	14.2148
16.15	30.7558
15.854	32.4892
15.568	40.0868
15.292	75.9754
15.027	91.9768
14.77	98.0803
14.521	99.1877
14.281	98.9631
14.049	98.8049
13.824	98.3865
13.607	97.5544
13.396	96.4138
13.191	95.3337
12.993	94.1404
12.8	92.9441
12.614	91.7371
12.432	90.6214
12.256	89.534
12.084	88.4534
11.918	87.3792
11.755	86.0427
11.598	84.5613
11.444	82.867
11.294	80.9436
11.149	78.8167
11.007	76.6844
10.868	74.3548
10.733	71.8338
10.602	68.8729
10.473	65.0721
10.348	59.9764
10.225	49.3212
10.106	58.3304
9.989	51.4501
9.875	44.5468
9.763	37.4765
9.654	29.4325
9.547	20.6201
9.443	12.0468
9.341	5.7246
9.241	3.7783
9.143	4.8725
9.047	6.1763
8.954	5.6416
8.862	7.0781
8.772	11.3501
8.684	14.5986
8.597	12.7939
8.513	9.8781
8.43	10.3349
8.348	16.6406
8.268	27.4477
8.19	37.4921
8.113	46.6124
8.037	55.1991
7.963	61.2093
7.891	65.7899
7.819	69.7979
7.749	73.4329
7.68	76.5586
7.613	79.293
7.546	81.6785
7.481	83.7517
7.417	85.6043
7.353	87.6465
7.291	89.6897
7.23	91.6563
7.17	93.3965
7.111	94.5706
7.053	95.5149
6.996	96.0583
6.94	96.1418
6.885	96.3203
6.83	96.6399
6.777	97.0124
6.724	97.3616
6.672	97.6904
6.621	97.8975
6.571	97.947
6.521	97.8147
6.472	97.906
6.424	98.092
6.377	98.4441
6.33	98.6582
6.284	98.3894
6.238	98.7239
6.194	99.2937
6.15	99.8115
6.106	100.222
6.063	100.528
6.021	100.754
5.979	100.838
5.938	100.954
5.898	100.991
5.858	101.008
5.818	101.08
5.779	101.131
5.741	101.147
5.703	101.125
5.666	101.07
5.629	101.074
5.592	101.057
5.556	101.036
5.521	101.014
5.486	100.994
5.451	100.981
5.417	100.994
5.383	100.982
5.35	100.993
5.317	100.965
5.285	100.92
5.252	100.914
5.221	100.89
5.189	100.825
5.158	100.805
5.128	100.685
5.097	100.272
5.068	100.418
5.038	100.489
5.009	100.383
4.98	100.22
4.951	99.9404
4.923	99.3352
4.895	97.3164
4.868	96.3486
4.84	95.8428
4.814	97.1367
4.787	96.9861
4.76	97.5322
4.734	97.6667
4.709	97.2761
4.683	96.9795
4.658	97.2976
4.633	97.8367
4.608	97.8074
4.584	97.6374
4.56	97.4199
4.536	97.6697
4.512	97.991
4.488	98.1804
4.465	98.1706
4.442	98.2224
4.42	98.3425
4.397	98.3601
4.375	98.3332
4.353	98.3137
4.331	98.2649
4.309	98.1077
4.288	97.9426
4.267	97.9412
4.246	97.9587
4.225	98.0002
4.205	98.094
4.184	98.1746
4.164	98.1819
4.144	98.1379
4.124	98.0789
4.105	97.9958
4.085	97.9202
4.066	97.821
4.047	97.7654
4.028	97.6706
4.009	97.6023
3.991	97.5261
3.973	97.4475
3.954	97.3347
3.936	97.2585
3.918	97.179
3.901	97.0286
3.883	96.967
3.866	96.8313
3.849	96.7566
3.832	96.6399
3.815	96.5554
3.798	96.4304
3.781	96.366
3.765	96.2541
3.748	96.1638
3.732	96.0588
3.716	95.9421
3.7	95.8093
3.685	95.7053
3.669	95.6077
3.653	95.4973
3.638	95.3953
3.623	95.2771
3.608	95.1633
3.593	95.0798
3.578	94.9822
3.563	94.8748
3.548	94.7683
3.534	94.6404
3.519	94.4495
3.505	94.1755
3.491	94.2
3.477	94.1521
3.463	94.113
3.449	93.9338
3.435	93.7229
3.422	93.4221
3.408	93.4021
3.395	93.571
3.382	93.4841
3.369	93.5281
3.355	93.5706
3.342	93.5491
3.33	93.4417
3.317	93.3811
3.304	93.2893
3.292	93.2107
3.279	93.1467
3.267	93.0603
3.254	93.0139
3.242	92.9412
3.23	92.8831
3.218	92.8362
3.206	92.8005
3.194	92.7678
3.182	92.6682
3.171	92.6111
3.159	92.5671
3.148	92.5193
3.136	92.4998
3.125	92.4529
3.114	92.4045
3.102	92.3279
3.091	92.2634
3.08	92.1638
3.069	92.0818
3.058	91.9685
3.048	91.8421
3.037	91.7957
3.026	91.6843
3.016	91.5935
3.005	91.4548
2.995	91.3289
2.985	91.2127
2.974	91.0642
2.964	90.9548
2.954	90.8201
2.944	90.6238
2.934	90.5623
2.924	90.4197
2.914	90.2849
2.904	90.1502
2.895	90.0134
2.885	89.8328
2.875	89.7088
2.866	89.6013
2.856	89.4783
2.847	89.2908
2.838	89.1756
2.828	88.9802
2.819	88.8299
2.81	88.6687
2.801	88.5164
2.792	88.4929
2.783	88.2537
2.774	88.1218
2.765	87.9031
2.756	87.7185
2.747	87.5115
2.739	87.3767
2.73	87.2302
2.721	87.1092
2.713	87.0506
2.704	86.8084
2.696	86.6541
2.687	86.5174
2.679	86.4373
2.671	86.2517
2.663	86.0857
2.654	86.0056
2.646	85.8406
2.638	85.7049
2.63	85.531
2.622	85.3943
2.614	85.2732
2.606	85.1795
2.599	85.1101
2.591	84.9256
2.583	84.7361
2.575	84.6814
2.568	84.5437
2.56	84.3406
2.553	84.2674
2.545	84.2195
2.538	84.1023
2.53	83.9451
2.523	83.8523
2.515	83.7156
2.508	83.5515
2.501	83.4412
2.494	83.3318
2.486	83.2351
2.479	83.1541
2.472	82.9607
2.465	82.8943
2.458	82.783
2.451	82.5974
2.444	82.5603
2.437	82.4197
2.43	82.3592
2.424	82.1756
2.417	82.0193
2.41	81.9334
2.403	81.8611
2.397	81.867
2.39	81.7283
2.384	81.5974
2.377	81.4295
2.37	81.3865
2.364	81.3689
2.358	81.2537
2.351	81.1912
2.345	81.1228
2.338	80.9373
2.332	80.8631
2.326	80.7537
2.32	80.6658
2.313	80.6189
2.307	80.5252
2.301	80.5877
2.295	80.449
2.289	80.4139
2.283	80.283
2.277	80.2537
2.271	80.1443
2.265	80.1014
2.259	80.0252
2.253	79.9236
2.247	80.0721
2.241	79.9217
2.236	79.8162
2.23	79.7771
2.224	79.6365
2.218	79.6424
2.213	79.742
2.207	79.6014
2.201	79.6033
2.196	79.4959
2.19	79.4549
2.185	79.5174
2.179	79.4471
2.174	79.4451
2.168	79.3865
2.163	79.4471
2.157	79.2185
2.152	79.2049
2.147	79.2185
2.141	79.2439
2.136	79.2889
2.131	79.2576
2.126	79.156
2.12	79.0857
2.115	78.9451
2.11	79.0252
2.105	79.0545
2.1	79.0955
2.095	79.2498
2.09	79.1951
2.085	79.1014
2.079	78.9256
