Name: Hornblende Ca2(Fe+2,Mg)4Al(Si7Al)O22(OH,F)2
Type: Mineral
Class: Silicates
Subclass: Inosilicates (Amphibole Group)
Particle Size: Course  (74-250 micrometers)
Sample No.: hornblen.1
Owner: JHU
Wavelength Range: IR
Origin: Gore Mountain, New York via Hunt and Salisbury Collection,
Description: The specimen was a cluster of very dark green single
Measurement: Bidirectional reflectance
X Units: Wavelength (micrometers)
Y Units: Reflectance (percent)
wavelength	value
25.0442	5.5823
24.3388	6.1323
23.6719	6.2607
23.0407	6.6579
22.4422	6.9751
21.8741	7.438
21.334	7.5954
20.8199	7.594
20.33	7.0608
19.8627	7.1743
19.4163	7.7761
18.9896	8.4013
18.5812	8.5246
18.19	8.2146
17.815	7.4892
17.4551	5.9971
17.1094	4.102
16.7772	2.4875
16.4576	1.8745
16.15	1.822
15.8537	1.8801
15.568	2.0254
15.2925	2.0803
15.0265	2.1536
14.7697	2.175
14.5214	2.1208
14.2814	2.1143
14.0492	2.1267
13.8244	2.2417
13.6067	2.3091
13.3957	2.2961
13.1912	2.2649
12.9929	2.345
12.8004	2.4629
12.6135	2.5674
12.432	2.6472
12.2557	2.7739
12.0843	2.9153
11.9176	3.1206
11.7555	3.3662
11.5977	3.5828
11.444	3.7964
11.2944	4.0002
11.1487	4.1831
11.0067	4.4363
10.8682	4.7634
10.7332	5.2287
10.6015	5.8223
10.473	6.3125
10.3476	6.7514
10.2251	7.0456
10.1056	7.0356
9.98873	6.644
9.87458	5.9783
9.763	5.7742
9.65392	6.0779
9.54724	6.3144
9.44291	6.1194
9.34082	5.6592
9.24091	5.0552
9.14312	4.5207
9.04739	4.1225
8.95363	3.6951
8.8618	3.137
8.77183	2.8874
8.68368	2.3
8.59727	1.3791
8.51257	0.9216
8.42951	0.9094
8.34807	1.0801
8.26819	1.2366
8.18981	1.3823
8.11292	1.5212
8.03745	1.6404
7.96337	1.7664
7.89064	1.8767
7.81924	1.9849
7.74911	2.0854
7.68023	2.1772
7.61256	2.2681
7.54608	2.3469
7.48074	2.4521
7.41653	2.5466
7.35341	2.6599
7.29136	2.7605
7.23034	2.876
7.17033	3.0002
7.11132	3.1335
7.05327	3.2764
6.99616	3.3852
6.93996	3.4807
6.88467	3.5652
6.83024	3.6311
6.77667	3.6704
6.72393	3.6614
6.67201	3.6101
6.62089	3.5564
6.57054	3.4587
6.52095	3.3279
6.4721	3.2126
6.42398	3.1169
6.37657	3.0286
6.32986	2.9507
6.28382	2.9055
6.23845	2.8931
6.19373	2.9089
6.14965	2.9341
6.10619	2.9734
6.06334	3.0059
6.02109	3.0478
5.97942	3.0981
5.93832	3.1663
5.89778	3.2392
5.8578	3.2996
5.81835	3.3352
5.77943	3.3884
5.74103	3.4773
5.70314	3.5854
5.66574	3.7349
5.62883	3.9416
5.5924	4.1067
5.55644	4.2388
5.52093	4.4141
5.48588	4.4849
5.45127	4.553
5.41709	4.5959
5.38334	4.5994
5.35	4.5881
5.31708	4.5937
5.28456	4.6133
5.25243	4.6509
5.2207	4.6794
5.18934	4.6841
5.15836	4.6938
5.12775	4.72
5.09749	4.7576
5.0676	4.8132
5.03805	4.9111
5.00884	5.0088
4.97998	5.1206
4.95144	5.2683
4.92322	5.4521
4.89533	5.6731
4.86775	5.8962
4.84048	6.1245
4.81351	6.3452
4.78684	6.5639
4.76047	6.7746
4.73439	7.0051
4.70859	7.2466
4.68306	7.4878
4.65782	7.7119
4.63284	7.9314
4.60814	8.1394
4.58369	8.323
4.5595	8.4824
4.53557	8.6294
4.51188	8.7422
4.48845	8.8313
4.46525	8.926
4.44229	9.0083
4.41957	9.0823
4.39708	9.1462
4.37481	9.2009
4.35277	9.2383
4.33096	9.2622
4.30935	9.3071
4.28797	9.3335
4.26679	9.3728
4.24583	9.4084
4.22506	9.4394
4.2045	9.4804
4.18414	9.5061
4.16398	9.5259
4.14401	9.5613
4.12423	9.5842
4.10464	9.6162
4.08523	9.6501
4.066	9.6833
4.04696	9.7109
4.02809	9.709
4.0094	9.687
3.99088	9.604
3.97253	9.6191
3.95435	9.6946
3.93634	9.8078
3.91848	9.8515
3.90079	9.8972
3.88326	9.9277
3.86589	9.9555
3.84867	9.9922
3.8316	10.0293
3.81468	10.0742
3.79791	10.1167
3.78129	10.1533
3.76482	10.1801
3.74848	10.1853
3.73229	10.2051
3.71624	10.2153
3.70032	10.23
3.68454	10.2458
3.6689	10.2634
3.65338	10.2866
3.638	10.2939
3.62275	10.3103
3.60762	10.3181
3.59262	10.3232
3.57775	10.3178
3.56299	10.3257
3.54836	10.331
3.53385	10.3193
3.51945	10.2654
3.50517	10.2275
3.49101	10.2077
3.47696	10.1897
3.46303	10.237
3.4492	10.2351
3.43549	10.2082
3.42188	10.1689
3.40838	10.1491
3.39499	10.1496
3.38171	10.1306
3.36852	10.144
3.35544	10.1145
3.34246	10.1516
3.32958	10.2033
3.3168	10.2199
3.30411	10.2312
3.29153	10.218
3.27903	10.209
3.26664	10.2024
3.25433	10.1938
3.24212	10.1982
3.23	10.2051
3.21797	10.2129
3.20603	10.206
3.19418	10.1992
3.18241	10.1904
3.17074	10.1701
3.15914	10.1579
3.14763	10.1269
3.13621	10.1106
3.12487	10.1001
3.11361	10.1028
3.10243	10.1001
3.09133	10.0937
3.0803	10.0742
3.06936	10.0508
3.0585	10.0007
3.04771	9.957
3.037	9.9201
3.02636	9.8501
3.0158	9.7712
3.00531	9.6855
2.99489	9.6269
2.98454	9.5561
2.97427	9.4822
2.96407	9.3908
2.95393	9.3169
2.94387	9.2473
2.93387	9.1694
2.92394	9.102
2.91408	9.0166
2.90429	8.9577
2.89456	8.8825
2.88489	8.7866
2.87529	8.6936
2.86576	8.6213
2.85628	8.5422
2.84687	8.4619
2.83752	8.3364
2.82823	8.1999
2.81901	8.0801
2.80984	7.9546
2.80073	7.5517
2.79168	6.823
2.78269	5.843
2.77376	4.8076
2.76488	4.0251
2.75606	3.7258
2.7473	3.5703
2.73859	3.489
2.72994	3.5339
2.72134	3.6462
2.7128	3.8794
2.70431	4.2959
2.69587	5.0447
2.68748	6.6399
2.67915	8.5403
2.67087	9.2856
2.66264	9.303
2.65446	9.268
2.64633	9.249
2.63825	9.2243
2.63021	9.2158
2.62223	9.1809
2.6143	9.199
2.60641	9.1577
2.59857	9.136
2.59078	9.0986
2.58304	9.0525
2.57534	9.0173
2.56768	8.9624
2.56008	8.9187
2.55251	8.8838
2.54499	8.8545
2.53752	8.8125
2.53009	8.7842
2.5227	8.7016
2.51536	8.6296
2.50806	8.5864
2.5008	8.5456
2.49358	8.4807
2.4864	8.4502
2.47927	8.4184
2.47218	8.3686
2.46512	8.3298
2.45811	8.3113
2.45114	8.2685
2.4442	8.1885
2.43731	8.1177
2.43045	8.0488
2.42363	7.9604
2.41685	7.8406
2.41011	7.7326
2.40341	7.5925
2.39674	7.4497
2.39011	7.4031
2.38352	7.4328
2.37696	7.5056
2.37044	7.5996
2.36395	7.5998
2.35751	7.5586
2.35109	7.4431
2.34471	7.3103
2.33836	7.1455
2.33205	7.0644
2.32578	7.0478
2.31953	7.0705
2.31332	7.155
2.30714	7.2685
2.301	7.3857
2.29489	7.5144
2.28881	7.6767
2.28276	7.8435
2.27675	7.9512
2.27076	8.0022
2.26481	7.9949
2.25889	7.9636
2.253	7.8921
2.24714	7.9934
2.24131	8.0976
2.23551	8.165
2.22974	8.1953
2.224	8.2168
2.21829	8.2409
2.21261	8.2358
2.20696	8.2285
2.20134	8.2461
2.19574	8.2629
2.19018	8.2905
2.18464	8.2805
2.17913	8.2876
2.17365	8.2932
2.16819	8.333
2.16277	8.344
2.15737	8.3425
2.15199	8.331
2.14665	8.3061
2.14133	8.3545
2.13603	8.3523
2.13077	8.3464
2.12552	8.3445
2.12031	8.3887
2.11512	8.4109
2.10995	8.4177
2.10481	8.4533
2.0997	8.4543
2.09461	8.5075
2.08954	8.5071
2.0845	8.5361
2.07948	8.5237
