Name: Carbonaceous Shale
Type: Rocks
Class: Sedimentary
Subclass: Shale
Particle Size: 0 - 75 Micrometers
Sample No.: shale.6
Owner: JHU
Wavelength Range: All
Origin: Sample No. 388,  The Hunt and Salisbury Collection at the U.S.
Description: Sample is foraminiferid ooze. In contrast to shale.3, there
Measurement: Directional (10 Degree) Hemispherical Reflectance
X Units: Wavelength (micrometers)
Y Units: Reflectance (percent)
wavelength	value
14.983	5.7236
14.645	6.1008
14.321	4.9168
14.011	2.6677
13.715	5.6805
13.43	6.1456
13.158	5.9739
12.896	4.7666
12.644	4.3434
12.402	4.3501
12.169	6.7732
11.945	7.8246
11.729	8.4839
11.52	5.6921
11.319	3.4701
11.125	6.215
10.937	4.7517
10.755	4.639
10.58	4.7136
10.41	4.4564
10.245	3.6292
10.086	3.0007
9.931	2.6895
9.781	2.5754
9.636	2.6514
9.495	2.7774
9.358	3.3384
9.225	3.795
9.095	3.8724
8.969	3.8547
8.847	4.0031
8.727	4.3775
8.612	4.3145
8.499	5.0835
8.389	6.332
8.281	8.635
8.177	11.465
8.075	12.402
7.976	13.387
7.879	13.306
7.784	13.455
7.692	13.318
7.601	11.953
7.513	11.518
7.427	10.476
7.343	8.4413
7.261	5.7885
7.18	3.8715
7.102	3.5011
7.025	2.9825
6.949	2.6263
6.875	2.4944
6.803	2.5031
6.733	2.6729
6.663	2.9659
6.596	3.5809
6.529	4.451
6.464	5.8152
6.4	6.6699
6.338	5.7269
6.276	5.0413
6.216	4.8557
6.157	4.8884
6.099	5.5169
6.042	6.1826
5.986	7.2167
5.931	7.9958
5.878	9.2675
5.825	10.152
5.773	10.505
5.722	11.311
5.672	12.396
5.623	12.018
5.574	4.1232
5.527	11.099
5.48	15.41
5.434	17.486
5.389	17.269
5.345	16.624
5.301	17.711
5.258	19.537
5.215	21.619
5.174	22.41
5.133	22.755
5.093	22.555
5.053	22.909
5.014	23.041
4.975	23.829
4.937	24.899
4.9	25.889
4.863	26.695
4.827	27.087
4.791	27.282
4.756	27.328
4.721	26.885
4.687	25.271
4.654	25.465
4.62	27.111
4.588	27.661
4.556	27.848
4.524	27.908
4.492	28.005
4.461	28.346
4.431	28.695
4.401	28.973
4.371	29.151
4.342	29.084
4.313	29.021
4.284	28.835
4.256	28.79
4.229	29.137
4.201	29.236
4.174	29.144
4.147	28.922
4.121	28.53
4.095	27.879
4.069	26.757
4.044	23.808
4.019	18.209
3.994	10.696
3.97	9.0269
3.945	13.503
3.921	16.835
3.898	17.84
3.875	18.337
3.852	18.912
3.829	21.072
3.806	24.44
3.784	27.432
3.762	28.172
3.74	28.352
3.719	28.408
3.698	28.317
3.677	28.075
3.656	27.837
3.636	27.565
3.615	27.131
3.595	26.415
3.575	25.201
3.556	24.28
3.536	22.332
3.517	17.253
3.498	14.226
3.479	12.854
3.461	15.5
3.442	15.575
3.424	14.348
3.406	14.637
3.388	14.734
3.371	15.031
3.353	14.567
3.336	18.244
3.319	19.692
3.302	19.856
3.285	19.983
3.269	20.082
3.252	20.325
3.236	20.416
3.22	20.236
3.204	19.928
3.188	19.605
3.173	19.19
3.157	18.719
3.142	18.267
3.127	17.868
3.112	17.372
3.097	16.89
3.082	16.568
3.067	16.23
3.053	15.92
3.039	15.674
3.025	15.509
3.011	15.423
2.997	15.443
2.983	15.661
2.969	15.713
2.956	15.805
2.942	15.801
2.929	15.889
2.916	16.061
2.903	16.244
2.89	16.458
2.877	16.655
2.864	16.785
2.852	16.873
2.839	16.746
2.827	16.486
2.814	16.132
2.802	15.489
2.79	14.251
2.778	11.999
2.766	10.067
2.755	9.3613
2.743	10.399
2.731	12.297
2.72	16.967
2.708	22.745
2.697	26.127
2.686	28.045
2.675	28.419
2.664	28.585
2.653	29.143
2.642	29.313
2.632	29.002
2.621	29.068
2.61	29.128
2.6	29.064
2.59	29.021
2.579	29.153
2.569	29.142
2.559	29.003
2.549	28.792
2.539	28.571
2.529	28.606
2.519	28.783
2.509	28.885
2.5	28.844
2.49	28.848
2.481	28.905
2.471	28.986
2.462	28.972
2.452	29.002
2.443	29
2.434	29.044
2.425	29.06
2.416	29.069
2.407	29.149
2.398	29.115
2.389	29.09
2.38	29.049
2.372	29.022
2.363	28.907
2.354	28.743
2.346	28.6
2.337	28.6
2.329	28.65
2.321	28.739
2.312	28.781
2.304	28.833
2.296	28.824
2.288	28.83
2.28	28.863
2.272	28.883
2.264	28.855
2.256	28.841
2.248	28.802
2.24	28.827
2.233	28.692
2.225	28.587
2.217	28.536
2.21	28.473
2.202	28.464
2.195	28.508
2.187	28.513
2.18	28.5
2.173	28.55
2.166	28.55
2.158	28.554
2.151	28.556
2.144	28.535
2.137	28.454
2.13	28.455
2.123	28.454
2.116	28.414
2.109	28.385
2.102	28.347
2.095	28.365
2.089	28.306
2.082	28.324
2.06	28.232
2.028	27.847
1.996	27.562
1.964	26.866
1.932	26.26
1.9	27.026
1.868	25.96
1.836	26.237
1.804	26.078
1.772	25.857
1.74	25.547
1.708	25.459
1.676	25.239
1.644	24.833
1.612	24.611
1.58	24.363
1.548	24.301
1.516	23.928
1.484	23.469
1.452	23.136
1.42	22.796
1.388	22.715
1.356	21.937
1.324	21.69
1.292	21.347
1.26	21.252
1.228	20.894
1.196	20.191
1.164	19.552
1.132	19.413
1.1	18.952
1.068	18.532
1.036	17.892
1.004	17.384
0.972	16.956
0.94	16.43
0.908	15.888
0.876	15.554
0.844	15.048
0.812	14.784
0.795	14.345
0.787	14.372
0.779	14.105
0.771	13.805
0.763	13.608
0.755	13.512
0.747	13.24
0.739	13.215
0.731	12.889
0.723	12.696
0.715	12.598
0.707	12.186
0.699	12.895
0.691	12.064
0.683	11.799
0.675	11.699
0.667	11.577
0.659	11.252
0.651	11.228
0.643	10.85
0.635	10.85
0.627	10.579
0.619	10.53
0.611	10.174
0.603	10.03
0.595	9.8949
0.587	9.7616
0.579	9.6781
0.571	9.3933
0.563	9.1904
0.555	9.1609
0.547	9.2368
0.539	8.8422
0.531	8.7776
0.523	8.6629
0.515	8.5558
0.507	8.0658
0.499	7.9892
0.491	7.9611
0.483	7.7652
0.475	7.5849
0.467	7.1623
0.459	6.8899
0.451	6.8711
0.443	6.6816
0.435	6.4952
0.427	6.5162
0.419	6.3024
0.411	5.9641
0.403	6.0623
