Name: Staurolite (Fe+2,Mg,Zn)2Al9(Si,Al)4O22(OH)2
Type: Mineral
Class: Silicates
Subclass: Nesosilicates (Framework silicates);
Particle Size: Fine  (0 - 74 Micrometers)
Sample No.: staurol.1
Owner: JHU
Wavelength Range: IR
Origin: Rubellita, Minas Gerais, Brazil via the Smithsonian (sample no.
Description: Sample was a large, dark brown, prismatic crystal with
Measurement: Bidirectional reflectance
X Units: Wavelength (micrometers)
Y Units: Reflectance (percent)
wavelength	value
25.0442	3.3755
24.3388	3.2834
23.6719	3.4983
23.0407	3.3672
22.4422	3.0547
21.8741	3.1514
21.334	3.1728
20.8199	3.2871
20.33	3.4214
19.8627	3.2068
19.4163	2.9741
18.9896	2.9922
18.5812	2.9834
18.19	2.9189
17.815	2.9011
17.4551	3.0242
17.1094	3.2483
16.7772	3.417
16.4576	3.469
16.15	3.4514
15.8537	3.426
15.568	3.5605
15.2925	3.6125
15.0265	3.582
14.7697	3.4878
14.5214	3.6074
14.2814	3.6794
14.0492	3.4661
13.8244	2.9331
13.6067	2.3486
13.3957	1.8315
13.1912	1.7331
12.9929	1.7893
12.8004	1.7451
12.6135	1.7322
12.432	1.8347
12.2557	1.9919
12.0843	2.1177
11.9176	2.1309
11.7555	2.1494
11.5977	2.2114
11.444	2.145
11.2944	2.092
11.1487	2.0803
11.0067	2.0696
10.8682	2.0823
10.7332	2.1457
10.6015	2.2183
10.473	2.3013
10.3476	2.3274
10.2251	2.3823
10.1056	2.4997
9.98873	2.6628
9.87458	2.908
9.763	3.0967
9.65392	3.2685
9.54724	3.3291
9.44291	3.3347
9.34082	3.353
9.24091	2.9641
9.14312	2.4966
9.04739	1.9724
8.95363	1.584
8.8618	1.4236
8.77183	1.4568
8.68368	1.6155
8.59727	1.8472
8.51257	2.1789
8.42951	2.5569
8.34807	3.0242
8.26819	3.5054
8.18981	3.8264
8.11292	4.0588
8.03745	4.3003
7.96337	4.5276
7.89064	4.7983
7.81924	5.0727
7.74911	5.3398
7.68023	5.5906
7.61256	5.8188
7.54608	6.0337
7.48074	6.2424
7.41653	6.4512
7.35341	6.6511
7.29136	6.8689
7.23034	7.0693
7.17033	7.2634
7.11132	7.4336
7.05327	7.5544
6.99616	7.6992
6.93996	7.8157
6.88467	7.8933
6.83024	7.9724
6.77667	8.0727
6.72393	8.1748
6.67201	8.2837
6.62089	8.425
6.57054	8.5735
6.52095	8.7732
6.4721	8.9541
6.42398	9.1164
6.37657	9.2746
6.32986	9.415
6.28382	9.572
6.23845	9.7136
6.19373	9.8415
6.14965	9.9763
6.10619	10.0813
6.06334	10.2011
6.02109	10.2844
5.97942	10.3066
5.93832	10.2588
5.89778	10.1968
5.8578	10.1552
5.81835	10.0493
5.77943	9.9314
5.74103	9.7605
5.70314	9.584
5.66574	9.4331
5.62883	9.2844
5.5924	9.1111
5.55644	8.9433
5.52093	8.7776
5.48588	8.6953
5.45127	8.6711
5.41709	8.6797
5.38334	8.7234
5.35	8.8076
5.31708	8.9182
5.28456	9.0027
5.25243	9.1059
5.2207	9.2414
5.18934	9.3891
5.15836	9.6059
5.12775	9.8447
5.09749	10.1352
5.0676	10.4536
5.03805	10.696
5.00884	10.8567
4.97998	11.2326
4.95144	11.779
4.92322	12.144
4.89533	12.4738
4.86775	12.7304
4.84048	12.9792
4.81351	13.0732
4.78684	13.2693
4.76047	13.467
4.73439	13.5932
4.70859	13.666
4.68306	13.7881
4.65782	13.8772
4.63284	13.9865
4.60814	14.1494
4.58369	14.2756
4.5595	14.3178
4.53557	14.3879
4.51188	14.4707
4.48845	14.5307
4.46525	14.5532
4.44229	14.5737
4.41957	14.6157
4.39708	14.6272
4.37481	14.6403
4.35277	14.6374
4.33096	14.6294
4.30935	14.625
4.28797	14.6252
4.26679	14.6086
4.24583	14.5786
4.22506	14.561
4.2045	14.5446
4.18414	14.5102
4.16398	14.49
4.14401	14.4441
4.12423	14.4011
4.10464	14.3696
4.08523	14.3256
4.066	14.2736
4.04696	14.217
4.02809	14.1543
4.0094	14.0937
3.99088	14.0297
3.97253	13.9621
3.95435	13.8855
3.93634	13.822
3.91848	13.7622
3.90079	13.6906
3.88326	13.6081
3.86589	13.5283
3.84867	13.4319
3.8316	13.3586
3.81468	13.2685
3.79791	13.1687
3.78129	13.0676
3.76482	12.9834
3.74848	12.8723
3.73229	12.758
3.71624	12.634
3.70032	12.5092
3.68454	12.3869
3.6689	12.2583
3.65338	12.1728
3.638	12.0366
3.62275	11.9004
3.60762	11.7815
3.59262	11.6516
3.57775	11.5237
3.56299	11.3906
3.54836	11.2488
3.53385	11.0954
3.51945	10.9299
3.50517	10.7356
3.49101	10.6242
3.47696	10.518
3.46303	10.4079
3.4492	10.2434
3.43549	10.0832
3.42188	9.865
3.40838	9.7353
3.39499	9.6596
3.38171	9.5217
3.36852	9.415
3.35544	9.3017
3.34246	9.1914
3.32958	9.0715
3.3168	8.9431
3.30411	8.8103
3.29153	8.6611
3.27903	8.5281
3.26664	8.3962
3.25433	8.2683
3.24212	8.1262
3.23	8.0058
3.21797	7.8823
3.20603	7.7754
3.19418	7.6665
3.18241	7.5466
3.17074	7.4333
3.15914	7.3205
3.14763	7.218
3.13621	7.0793
3.12487	6.9866
3.11361	6.8662
3.10243	6.7424
3.09133	6.6157
3.0803	6.4817
3.06936	6.302
3.0585	6.1206
3.04771	5.9014
3.037	5.6662
3.02636	5.3938
3.0158	5.0596
3.00531	4.7319
2.99489	4.4643
2.98454	4.2595
2.97427	4.0474
2.96407	3.7883
2.95393	3.4761
2.94387	3.0515
2.93387	2.7412
2.92394	2.5522
2.91408	2.4983
2.90429	2.5303
2.89456	2.5608
2.88489	2.5813
2.87529	2.7053
2.86576	3.0156
2.85628	3.4692
2.84687	3.8586
2.83752	4.0461
2.82823	4.2219
2.81901	4.4238
2.80984	4.4936
2.80073	4.2851
2.79168	4.3535
2.78269	4.5369
2.77376	4.7644
2.76488	4.8784
2.75606	4.7898
2.7473	4.6997
2.73859	4.4392
2.72994	4.0483
2.72134	3.7419
2.7128	3.7974
2.70431	4.3894
2.69587	4.9294
2.68748	5.1675
2.67915	5.1977
2.67087	5.188
2.66264	5.1792
2.65446	5.1714
2.64633	5.125
2.63825	5.0876
2.63021	5.0867
2.62223	5.0698
2.6143	5.0525
2.60641	5.0176
2.59857	5.0474
2.59078	5.0513
2.58304	5.0686
2.57534	5.0542
2.56768	5.0493
2.56008	5.0508
2.55251	5.0122
2.54499	5.0332
2.53752	5.02
2.53009	4.9941
2.5227	5.0244
2.51536	4.9946
2.50806	4.999
2.5008	4.9975
2.49358	5.0293
2.4864	5.0249
2.47927	5.0024
2.47218	5.0469
2.46512	5.0171
2.45811	5.0254
2.45114	5.062
2.4442	5.0234
2.43731	5.0474
2.43045	5.0508
2.42363	5.0483
2.41685	5.0691
2.41011	5.074
2.40341	5.0591
2.39674	5.0713
2.39011	5.0798
2.38352	5.0351
2.37696	4.9795
2.37044	4.9958
2.36395	4.926
2.35751	4.9553
2.35109	4.9797
2.34471	4.9944
2.33836	5.043
2.33205	5.0622
2.32578	5.0757
2.31953	5.0869
2.31332	5.1194
2.30714	5.0874
2.301	5.0744
2.29489	5.0713
2.28881	5.0784
2.28276	5.0588
2.27675	5.0688
2.27076	5.0849
2.26481	5.1069
2.25889	5.092
2.253	5.0884
2.24714	5.1343
2.24131	5.0683
2.23551	5.1304
2.22974	5.1369
2.224	5.1128
2.21829	5.1396
2.21261	5.1269
2.20696	5.0932
2.20134	5.1289
2.19574	5.0474
2.19018	5.1152
2.18464	5.0898
2.17913	5.0627
2.17365	5.0498
2.16819	5.0696
2.16277	5.0859
2.15737	5.0537
2.15199	5.1059
2.14665	5.0542
2.14133	5.0732
2.13603	5.0774
2.13077	5.052
2.12552	5.0849
2.12031	5.0815
2.11512	5.0693
2.10995	5.0493
2.10481	5.0644
2.0997	5.0444
2.09461	5.0439
2.08954	5.0881
2.0845	5.0129
2.07948	4.9827
