Name: Andalusite Al2SiO5
Type: Mineral
Class: Silicates
Subclass: Nesosilicates  (Isolated tetrahedra) (Al2SiO5 Group)
Particle Size: Fine (less than 2 Micrometers)
Owner: JHU
Wavelength Range: IR
Origin: Sample from St. Theresa, Espirito Santo, Brazil via Smithsonian
Description: Sample was composed of two crystals, one clear and one
Measurement: Transmission
X Units: Wavelength (micrometers)
Y Units: Transmittance (percent)
wavelength	value
25.044	79.6951
24.339	76.6326
23.672	66.4451
23.041	49.0253
22.442	34.9843
21.874	27.7831
21.334	49.3846
20.82	44.2421
20.33	46.7264
19.863	64.3241
19.416	59.0985
18.99	46.3954
18.581	61.3602
18.19	68.0018
17.815	62.9373
17.455	59.5682
17.109	47.6024
16.777	35.5038
16.458	29.5605
16.15	30.8632
15.854	38.9022
15.568	46.5223
15.292	47.6913
15.027	46.3866
14.77	39.0214
14.521	34.788
14.281	37.122
14.049	47.0145
13.824	55.6112
13.607	51.9217
13.396	58.867
13.191	71.4627
12.993	70.3167
12.8	69.0369
12.614	77.2815
12.432	79.6546
12.256	79.7796
12.084	78.6351
11.918	75.4983
11.755	69.6815
11.598	58.8304
11.444	45.2186
11.294	33.6776
11.149	30.2153
11.007	37.7499
10.868	37.9398
10.733	22.2617
10.602	19.5166
10.473	20.934
10.348	25.1738
10.225	22.8754
10.106	25.0507
9.989	25.2387
9.875	27.12
9.763	32.661
9.654	40.6337
9.547	48.7645
9.443	54.8915
9.341	58.3128
9.241	60.221
9.143	61.1424
9.047	62.7557
8.954	64.3304
8.862	65.848
8.772	67.8807
8.684	70.7469
8.597	73.6033
8.513	76.3431
8.43	79.3489
8.348	82.241
8.268	84.6797
8.19	86.7146
8.113	88.2188
8.037	89.2979
7.963	90.0545
7.891	90.656
7.819	91.1038
7.749	91.5068
7.68	91.9246
7.613	92.2354
7.546	92.5735
7.481	92.8203
7.417	93.1013
7.353	93.4131
7.291	93.6218
7.23	93.7009
7.17	93.7205
7.111	93.8142
7.053	94.2068
6.996	94.3474
6.94	94.2041
6.885	94.2429
6.83	94.498
6.777	94.8132
6.724	95.0283
6.672	95.0896
6.621	95.0632
6.571	95.1121
6.521	95.1052
6.472	95.031
6.424	94.9568
6.377	94.8213
6.33	94.4297
6.284	94.0508
6.238	93.1953
6.194	92.2139
6.15	92.0115
6.106	92.085
6.063	92.7224
6.021	93.7849
5.979	94.25
5.938	95.1934
5.898	95.781
5.858	96.0459
5.818	96.2891
5.779	96.3398
5.741	96.5813
5.703	96.8289
5.666	96.905
5.629	97.0107
5.592	96.9199
5.556	96.9558
5.521	96.8789
5.486	96.8992
5.451	97.0244
5.417	96.9763
5.383	96.9304
5.35	97.0466
5.317	97.2322
5.285	97.2253
5.252	97.2644
5.221	97.3242
5.189	97.4873
5.158	97.5535
5.128	97.5349
5.097	97.4824
5.068	97.5691
5.038	97.5393
5.009	97.6096
4.98	97.5461
4.951	97.4905
4.923	97.5466
4.895	97.6697
4.868	97.7761
4.84	97.8303
4.814	97.8865
4.787	97.908
4.76	97.9255
4.734	97.9539
4.709	97.9788
4.683	98.0378
4.658	98.0403
4.633	98.0618
4.608	98.0842
4.584	98.133
4.56	98.1897
4.536	98.1243
4.512	98.1609
4.488	98.2039
4.465	98.1448
4.442	98.1394
4.42	98.2122
4.397	98.2747
4.375	98.2839
4.353	98.2683
4.331	98.3015
4.309	98.2839
4.288	98.3083
4.267	98.2751
4.246	98.3127
4.225	98.3464
4.205	98.3196
4.184	98.3415
4.164	98.3166
4.144	98.3039
4.124	98.3396
4.105	98.3757
4.085	98.3503
4.066	98.3044
4.047	98.3777
4.028	98.3796
4.009	98.385
3.991	98.3445
3.973	98.406
3.954	98.467
3.936	98.4636
3.918	98.5808
3.901	98.5867
3.883	98.4455
3.866	98.4885
3.849	98.5261
3.832	98.5139
3.815	98.5212
3.798	98.5779
3.781	98.5569
3.765	98.5061
3.748	98.4714
3.732	98.4475
3.716	98.4148
3.7	98.365
3.685	98.3791
3.669	98.3088
3.653	98.3142
3.638	98.2424
3.623	98.1765
3.608	98.1174
3.593	98.0666
3.578	98.0173
3.563	97.9773
3.548	97.9377
3.534	97.844
3.519	97.6296
3.505	97.2624
3.491	97.4241
3.477	97.3357
3.463	97.1628
3.449	97.072
3.435	96.7717
3.422	96.4104
3.408	96.4612
3.395	96.6189
3.382	96.3635
3.369	96.5041
3.355	96.5002
3.342	96.5315
3.33	96.4749
3.317	96.365
3.304	96.3044
3.292	96.2498
3.279	96.1545
3.267	95.9734
3.254	95.8611
3.242	95.6853
3.23	95.5417
3.218	95.2781
3.206	95.0945
3.194	94.9314
3.182	94.7771
3.171	94.5857
3.159	94.3757
3.148	94.0437
3.136	93.7761
3.125	93.6765
3.114	93.3572
3.102	93.0427
3.091	92.8562
3.08	92.6795
3.069	92.5046
3.058	92.2127
3.048	92.0789
3.037	91.782
3.026	91.3836
3.016	90.738
3.005	90.2459
2.995	89.5877
2.985	88.8357
2.974	87.8806
2.964	86.8709
2.954	85.9021
2.944	85.4002
2.934	84.7742
2.924	84.4851
2.914	84.3357
2.904	84.5672
2.895	84.9461
2.885	85.5291
2.875	86.2615
2.866	87.0701
2.856	87.7732
2.847	88.4812
2.838	88.9939
2.828	89.6052
2.819	90.2039
2.81	90.9304
2.801	91.825
2.792	92.7586
2.783	93.9334
2.774	94.906
2.765	95.7927
2.756	96.7156
2.747	97.6326
2.739	98.3591
2.73	98.9421
2.721	99.5046
2.713	99.6101
2.704	99.8826
2.696	100.314
2.687	100.414
2.679	100.511
2.671	100.712
2.663	100.645
2.654	100.558
2.646	100.715
2.638	100.72
2.63	100.652
2.622	100.841
2.614	100.988
2.606	100.883
2.599	100.851
2.591	101.06
2.583	101.06
2.575	100.851
2.568	100.838
2.56	101.025
2.553	101.037
2.545	100.892
2.538	101.351
2.53	101.084
2.523	101.049
2.515	101.105
2.508	101.172
2.501	101.158
2.494	101.32
2.486	101.385
2.479	101.539
2.472	101.47
2.465	101.375
2.458	101.439
2.451	101.572
2.444	101.392
2.437	101.752
2.43	101.478
2.424	101.554
2.417	101.736
2.41	101.814
2.403	101.504
2.397	101.777
2.39	101.773
2.384	101.986
2.377	102.088
2.37	101.988
2.364	102.14
2.358	101.939
2.351	101.992
2.345	102.181
2.338	102.094
2.332	102.363
2.326	102.094
2.32	102.408
2.313	102.517
2.307	102.469
2.301	102.486
2.295	102.338
2.289	102.845
2.283	102.65
2.277	102.478
2.271	102.586
2.265	102.617
2.259	102.879
2.253	103.007
2.247	103.097
2.241	103.007
2.236	103.039
2.23	103.203
2.224	102.976
2.218	103.203
2.213	102.961
2.207	103.039
2.201	103.492
2.196	103.461
2.19	103.519
2.185	103.351
2.179	103.375
2.174	103.695
2.168	103.644
2.163	103.89
2.157	103.523
2.152	104.05
2.147	104.074
2.141	103.687
2.136	104.187
2.131	103.945
2.126	104.031
2.12	104.406
2.115	104.328
2.11	103.988
2.105	104.144
2.1	104.39
2.095	104.722
2.09	104.711
2.085	104.879
2.079	104.347
