Name: Olivine (Fo60) (Fe+2,Mg)2SiO4
Type: Mineral
Class: Silicates
Subclass: Nesosilicates (Isolated tetrahedra); (Olivine Group)
Particle Size: Fine  (less than 2 Micrometers)
Sample No.: olivine.6
Owner: JHU
Wavelength Range: IR
Origin: Kiglapait Intrusion, Labrador via Trude King #KI3189
Description: Initially, the specimen was contaminated with
Measurement: Transmission
X Units: Wavelength (micrometers)
Y Units: Transmittance (percent)
wavelength	value
25.0442	24.6093
24.3388	31.8359
23.6719	39.1327
23.0407	47.3768
22.4422	51.3983
21.8741	53.0233
21.334	50.8924
20.8199	36.7284
20.33	26.996
19.8627	28.8642
19.4163	28.3329
18.9896	30.5155
18.5812	39.6249
18.19	55.0643
17.815	64.3162
17.4551	60.493
17.1094	45.203
16.7772	45.6913
16.4576	57.2665
16.15	72.3875
15.8537	81.9773
15.568	86.3875
15.2925	88.9627
15.0265	90.4334
14.7697	91.117
14.5214	91.3142
14.2814	91.3401
14.0492	91.0779
13.8244	90.4431
13.6067	89.6599
13.3957	88.5217
13.1912	86.74
12.9929	84.4768
12.8004	81.4353
12.6135	77.3987
12.432	71.055
12.2557	61.5848
12.0843	44.5468
11.9176	36.4296
11.7555	33.5121
11.5977	21.1
11.444	9.8344
11.2944	6.6982
11.1487	10.0381
11.0067	13.4814
10.8682	18.6689
10.7332	23.8554
10.6015	25.1913
10.473	30.7577
10.3476	19.1416
10.2251	19.061
10.1056	21.5107
9.98873	28.9877
9.87458	40.7055
9.763	52.2782
9.65392	61.4906
9.54724	68.2757
9.44291	73.1614
9.34082	76.3738
9.24091	78.9202
9.14312	81.2962
9.04739	83.8162
8.95363	85.5237
8.8618	87.3069
8.77183	88.7278
8.68368	89.9768
8.59727	90.992
8.51257	92.1423
8.42951	93.251
8.34807	94.0996
8.26819	94.9131
8.18981	95.6045
8.11292	96.1384
8.03745	96.5557
7.96337	96.779
7.89064	96.916
7.81924	97.1348
7.74911	97.4021
7.68023	97.6013
7.61256	97.7068
7.54608	97.8555
7.48074	98.1907
7.41653	98.51
7.35341	98.583
7.29136	98.7898
7.23034	98.8916
7.17033	98.6853
7.11132	98.8008
7.05327	99.0156
6.99616	99.1799
6.93996	99.2497
6.88467	99.366
6.83024	99.4407
6.77667	99.3408
6.72393	99.416
6.67201	99.4023
6.62089	99.3503
6.57054	99.2031
6.52095	99.1384
6.4721	98.9372
6.42398	98.6404
6.37657	98.6023
6.32986	98.3083
6.28382	98.1084
6.23845	97.8975
6.19373	97.7588
6.14965	97.6904
6.10619	97.428
6.06334	97.1748
6.02109	97.0964
5.97942	97.2324
5.93832	97.4883
5.89778	97.8928
5.8578	98.1494
5.81835	97.9036
5.77943	97.9268
5.74103	97.7217
5.70314	97.4685
5.66574	97.3967
5.62883	97.4424
5.5924	97.5518
5.55644	97.4785
5.52093	97.4236
5.48588	97.3691
5.45127	97.4473
5.41709	97.3799
5.38334	97.4309
5.35	97.3603
5.31708	97.3572
5.28456	97.3464
5.25243	97.3621
5.2207	97.324
5.18934	97.3027
5.15836	97.2783
5.12775	97.1697
5.09749	97.0898
5.0676	97.0564
5.03805	96.9929
5.00884	96.9853
4.97998	96.9521
4.95144	96.9951
4.92322	96.9785
4.89533	96.9158
4.86775	96.9089
4.84048	96.8162
4.81351	96.7327
4.78684	96.6995
4.76047	96.6301
4.73439	96.5198
4.70859	96.4465
4.68306	96.3621
4.65782	96.302
4.63284	96.2078
4.60814	96.0715
4.58369	95.9558
4.5595	95.9075
4.53557	95.8142
4.51188	95.7317
4.48845	95.6204
4.46525	95.5193
4.44229	95.4041
4.41957	95.3347
4.39708	95.2644
4.37481	95.178
4.35277	95.031
4.33096	94.9446
4.30935	94.9275
4.28797	94.7878
4.26679	94.7122
4.24583	94.6834
4.22506	94.553
4.2045	94.4529
4.18414	94.3469
4.16398	94.2615
4.14401	94.1941
4.12423	94.0754
4.10464	94.0281
4.08523	93.9104
4.066	93.7659
4.04696	93.6228
4.02809	93.5964
4.0094	93.446
3.99088	93.3445
3.97253	93.2898
3.95435	93.1785
3.93634	93.0452
3.91848	92.9802
3.90079	92.8367
3.88326	92.7009
3.86589	92.6096
3.84867	92.4646
3.8316	92.4202
3.81468	92.2898
3.79791	92.1345
3.78129	92.0222
3.76482	91.9319
3.74848	91.7947
3.73229	91.6902
3.71624	91.5354
3.70032	91.4163
3.68454	91.3435
3.6689	91.1257
3.65338	91.096
3.638	90.9221
3.62275	90.8323
3.60762	90.676
3.59262	90.5725
3.57775	90.4378
3.56299	90.3425
3.54836	90.1858
3.53385	90.1131
3.51945	90.1414
3.50517	90.283
3.49101	89.9939
3.47696	89.7581
3.46303	89.6716
3.4492	89.6428
3.43549	89.635
3.42188	89.7893
3.40838	89.3714
3.39499	89.0174
3.38171	88.7361
3.36852	88.4085
3.35544	88.0784
3.34246	87.9046
3.32958	87.7058
3.3168	87.5042
3.30411	87.409
3.29153	87.2678
3.27903	87.0369
3.26664	86.8455
3.25433	86.6951
3.24212	86.5569
3.23	86.305
3.21797	86.1448
3.20603	85.9666
3.19418	85.7381
3.18241	85.5633
3.17074	85.3904
3.15914	85.3084
3.14763	85.0574
3.13621	84.8836
3.12487	84.6951
3.11361	84.6053
3.10243	84.5574
3.09133	84.3533
3.0803	84.2459
3.06936	84.1726
3.0585	83.9549
3.04771	83.7967
3.037	83.7469
3.02636	83.5681
3.0158	83.4119
3.00531	83.2146
2.99489	83.2078
2.98454	83.3201
2.97427	83.0984
2.96407	83.2322
2.95393	83.2342
2.94387	83.242
2.93387	83.2068
2.92394	83.0896
2.91408	83.0349
2.90429	82.9842
2.89456	82.9783
2.88489	82.8523
2.87529	82.9139
2.86576	82.7625
2.85628	82.8015
2.84687	82.739
2.83752	82.6531
2.82823	82.7039
2.81901	82.6209
2.80984	82.6648
2.80073	82.6258
2.79168	82.6385
2.78269	82.7342
2.77376	82.7732
2.76488	82.783
2.75606	82.739
2.7473	83.1297
2.73859	83.0594
2.72994	83.2469
2.72134	83.2888
2.7128	83.3162
2.70431	83.4138
2.69587	83.1443
2.68748	83.1853
2.67915	83.1482
2.67087	82.9256
2.66264	82.8484
2.65446	82.7664
2.64633	82.7654
2.63825	82.6805
2.63021	82.4275
2.62223	82.5017
2.6143	82.324
2.60641	82.1365
2.59857	82.1033
2.59078	82.0564
2.58304	81.8572
2.57534	81.8709
2.56768	81.7693
2.56008	81.5818
2.55251	81.6267
2.54499	81.4295
2.53752	81.2752
2.53009	81.2615
2.5227	81.1873
2.51536	81.0955
2.50806	80.9939
2.5008	80.9549
2.49358	80.8924
2.4864	80.783
2.47927	80.656
2.47218	80.5115
2.46512	80.5271
2.45811	80.1131
2.45114	80.1131
2.4442	80.1912
2.43731	79.9881
2.43045	79.7615
2.42363	79.7986
2.41685	79.7185
2.41011	79.7185
2.40341	79.574
2.39674	79.4803
2.39011	79.4002
2.38352	79.3592
2.37696	79.1795
2.37044	79.1658
2.36395	79.0779
2.35751	78.9139
2.35109	78.9393
2.34471	78.5154
2.33836	78.5018
2.33205	78.4842
2.32578	78.2771
2.31953	78.3982
2.31332	78.2674
2.30714	78.1502
2.301	77.9158
2.29489	77.9158
2.28881	77.8201
2.28276	77.7811
2.27675	77.617
2.27076	77.6561
2.26481	77.3357
2.25889	77.324
2.253	77.0818
2.24714	76.9412
2.24131	76.9881
2.23551	76.7498
2.22974	76.8357
2.224	76.5193
2.21829	76.6053
2.21261	76.8201
2.20696	76.4764
2.20134	76.1248
2.19574	76.1717
2.19018	76.2459
2.18464	76.0232
2.17913	75.4764
2.17365	75.6951
2.16819	75.91
2.16277	75.5818
2.15737	75.1912
2.15199	75.2264
2.14665	74.9842
2.14133	74.8982
2.13603	74.8123
2.13077	74.5623
2.12552	74.6756
2.12031	74.4881
2.11512	74.4451
2.10995	74.3045
2.10481	74.2693
2.0997	74.2225
2.09461	73.8748
2.08954	73.8006
2.0845	73.5857
2.07948	73.9686
