Name: Hornblende Ca2(Fe2+,Mg)4Al(Si7,Al)O22(OH,F)2
Type: Mineral
Class: Silicates
Subclass: Inosilicates (Amphibole Group)
Particle Size: Coarse  (74-250 micrometers)
Sample No.: hornblen.2
Owner: JHU
Wavelength Range: IR
Origin: Kragero, Norway via the Smithsonian (sample no. NMNH
Description: Sample was a fragment of a black crystal, contaminated
Measurement: Bidirectional reflectance
X Units: Wavelength (micrometers)
Y Units: Reflectance (percent)
wavelength	value
25.044	3.8725
24.339	4.1186
23.672	4.449
23.041	5.1592
22.442	6.0068
21.874	6.2261
21.334	5.9492
20.82	5.8357
20.33	5.7341
19.863	6.0312
19.416	6.6133
18.99	7.3847
18.581	7.7656
18.19	6.8982
17.815	6.4226
17.455	5.2114
17.109	3.5864
16.777	2.0801
16.458	1.4614
16.15	1.3176
15.854	1.4478
15.568	1.6162
15.292	1.6582
15.027	1.7192
14.77	1.7905
14.521	1.8962
14.281	1.7507
14.049	1.6687
13.824	1.761
13.607	1.8962
13.396	2.0151
13.191	2.1228
12.993	1.7871
12.8	1.6238
12.614	1.7725
12.432	1.8887
12.256	1.9949
12.084	2.0515
11.918	2.1523
11.755	2.3027
11.598	2.3999
11.444	2.5601
11.294	2.7529
11.149	2.9465
11.007	3.2234
10.868	3.4895
10.733	3.4026
10.602	4.0203
10.473	4.7634
10.348	5.3389
10.225	5.8755
10.106	6.6074
9.9887	6.7392
9.8746	6.0586
9.763	4.9153
9.6539	4.6848
9.5472	4.7974
9.4429	4.9121
9.3408	5.1125
9.2409	5.3122
9.1431	5.175
9.0474	4.5498
8.9536	4.3457
8.8618	4.2793
8.7718	4.269
8.6837	3.9475
8.5973	2.5403
8.5126	1.5547
8.4295	0.9514
8.3481	0.6506
8.2682	0.5745
8.1898	0.657
8.1129	0.7644
8.0374	0.8821
7.9634	0.9873
7.8906	1.0962
7.8192	1.1821
7.7491	1.2539
7.6802	1.3332
7.6126	1.4072
7.5461	1.4607
7.4807	1.4824
7.4165	1.5264
7.3534	1.5933
7.2914	1.6772
7.2303	1.7856
7.1703	1.8813
7.1113	1.9875
7.0533	2.1089
6.9962	2.2195
6.94	2.3313
6.8847	2.4116
6.8302	2.4673
6.7767	2.5315
6.7239	2.5994
6.672	2.655
6.6209	2.7034
6.5705	2.71
6.5209	2.645
6.4721	2.5268
6.424	2.3967
6.3766	2.2649
6.3299	2.1382
6.2838	2.0234
6.2385	1.9324
6.1937	1.8977
6.1496	1.8984
6.1062	1.9499
6.0633	2.0515
6.0211	2.1162
5.9794	2.0952
5.9383	2.0444
5.8978	2.0525
5.8578	2.1033
5.8184	2.1577
5.7794	2.2165
5.741	2.302
5.7031	2.3462
5.6657	2.3523
5.6288	2.3984
5.5924	2.501
5.5564	2.636
5.5209	2.7285
5.4859	2.7761
5.4513	2.8643
5.4171	2.998
5.3833	3.0854
5.35	3.1096
5.3171	3.1929
5.2846	3.3538
5.2524	3.4521
5.2207	3.6072
5.1893	3.6081
5.1584	3.4878
5.1277	3.3899
5.0975	3.3887
5.0676	3.4375
5.038	3.5288
5.0088	3.6394
4.98	3.7844
4.9514	3.9441
4.9232	4.124
4.8953	4.3288
4.8678	4.5068
4.8405	4.6614
4.8135	4.7869
4.7868	5.0002
4.7605	5.2849
4.7344	5.5657
4.7086	5.8208
4.6831	6.092
4.6578	6.4082
4.6328	6.7497
4.6081	7.074
4.5837	7.3667
4.5595	7.6513
4.5356	7.8779
4.5119	8.0408
4.4884	8.2004
4.4652	8.3237
4.4423	8.4184
4.4196	8.5014
4.3971	8.5566
4.3748	8.5945
4.3528	8.6169
4.331	8.6384
4.3094	8.6697
4.288	8.6831
4.2668	8.7202
4.2458	8.7444
4.2251	8.7568
4.2045	8.7912
4.1841	8.802
4.164	8.8242
4.144	8.8532
4.1242	8.8747
4.1046	8.907
4.0852	8.9324
4.066	8.9585
4.047	8.9902
4.0281	9.0141
4.0094	9.0486
3.9909	9.0591
3.9725	9.0735
3.9544	9.1108
3.9363	9.1365
3.9185	9.1711
3.9008	9.1904
3.8833	9.2141
3.8659	9.2275
3.8487	9.2334
3.8316	9.2507
3.8147	9.2495
3.7979	9.2568
3.7813	9.2754
3.7648	9.29
3.7485	9.2895
3.7323	9.3025
3.7162	9.292
3.7003	9.2746
3.6845	9.2898
3.6689	9.2854
3.6534	9.2925
3.638	9.2956
3.6227	9.3156
3.6076	9.322
3.5926	9.3193
3.5777	9.3056
3.563	9.2925
3.5484	9.2846
3.5338	9.2651
3.5195	9.2478
3.5052	9.2268
3.491	9.2387
3.477	9.2229
3.463	9.1909
3.4492	9.1594
3.4355	9.0959
3.4219	9.0146
3.4084	8.9311
3.395	8.831
3.3817	8.7424
3.3685	8.6721
3.3554	8.5383
3.3425	8.4472
3.3296	8.5027
3.3168	8.5388
3.3041	8.6062
3.2915	8.7273
3.279	8.834
3.2666	8.8496
3.2543	8.8205
3.2421	8.7737
3.23	8.7341
3.218	8.7126
3.206	8.6855
3.1942	8.6184
3.1824	8.5288
3.1707	8.4768
3.1591	8.5574
3.1476	8.5859
3.1362	8.5639
3.1249	8.5185
3.1136	8.4822
3.1024	8.4768
3.0913	8.4785
3.0803	8.4707
3.0694	8.446
3.0585	8.4065
3.0477	8.3574
3.037	8.3091
3.0264	8.2702
3.0158	8.2051
3.0053	8.133
2.9949	8.0842
2.9845	8.0473
2.9743	7.9829
2.9641	7.9448
2.9539	7.9082
2.9439	7.8579
2.9339	7.7995
2.9239	7.7304
2.9141	7.6609
2.9043	7.6101
2.8946	7.5542
2.8849	7.4905
2.8753	7.4204
2.8658	7.3716
2.8563	7.3115
2.8469	7.2351
2.8375	7.144
2.8282	7.0447
2.819	6.9853
2.8098	6.9419
2.8007	6.9158
2.7917	6.7829
2.7827	6.3489
2.7738	5.3647
2.7649	4.1106
2.7561	3.2449
2.7473	2.5786
2.7386	2.0696
2.7299	1.8232
2.7213	1.9097
2.7128	2.7654
2.7043	2.6326
2.6959	2.6379
2.6875	3.0364
2.6791	4.6367
2.6709	6.7917
2.6626	7.3218
2.6545	7.2939
2.6463	7.1946
2.6382	7.1245
2.6302	7.114
2.6222	7.0923
2.6143	7.0442
2.6064	6.9621
2.5986	6.9028
2.5908	6.8298
2.583	6.759
2.5753	6.7109
2.5677	6.6037
2.5601	6.5727
2.5525	6.5591
2.545	6.5583
2.5375	6.5395
2.5301	6.4912
2.5227	6.4614
2.5154	6.3721
2.5081	6.3574
2.5008	6.2737
2.4936	6.1987
2.4864	6.1819
2.4793	6.1062
2.4722	6.0801
2.4651	6.0078
2.4581	6.0181
2.4511	6.0173
2.4442	6.0083
2.4373	6.0376
2.4305	6.0117
2.4236	5.937
2.4169	5.8594
2.4101	5.7485
2.4034	5.5962
2.3967	5.2661
2.3901	4.9448
2.3835	4.9231
2.377	5.1011
2.3704	5.4014
2.364	5.6702
2.3575	5.8149
2.3511	5.8281
2.3447	5.7793
2.3384	5.6035
2.3321	5.2947
2.3258	4.8569
2.3195	4.4785
2.3133	4.435
2.3071	4.7002
2.301	4.8547
2.2949	5.1338
2.2888	5.5229
2.2828	5.739
2.2767	6.0058
2.2708	6.1997
2.2648	6.3367
2.2589	6.3862
2.253	6.3738
2.2471	6.4106
2.2413	6.5618
2.2355	6.6518
2.2297	6.7314
2.224	6.7646
2.2183	6.8486
2.2126	6.8857
2.207	6.8857
2.2013	6.9026
2.1957	6.936
2.1902	7.0039
2.1846	6.9741
2.1791	7.0112
2.1736	7.0351
2.1682	7.0952
2.1628	7.1145
2.1574	7.1321
2.152	7.1264
2.1466	7.1367
2.1413	7.187
2.136	7.1714
2.1308	7.2192
2.1255	7.2043
2.1203	7.249
2.1151	7.2676
2.11	7.355
2.1048	7.3447
2.0997	7.4443
2.0946	7.4971
2.0895	7.5022
2.0845	7.592
2.0795	7.6223
