Name: Shelburn
Type: Stony Meteorites
Class: Ordinary Chondrite
Subclass: L5
Particle Size: 0-75 micrometers
Sample No.: Shelburn
Owner: JHU
Origin: Seen to fall in 1904.  Smithsonian sample without a USNM catalog
Description: None.
Measurement: Bidirectional reflectance
X Units: Wavelength (micrometers)
Y Units: Reflectance (percent)
wavelength	value
25.044	1.3237
24.339	1.48
23.672	1.3381
23.041	1.1821
22.442	0.9661
21.874	1.0273
21.334	0.8706
20.82	0.989
20.33	1.2666
19.863	1.303
19.416	1.3516
18.99	1.2903
18.581	1.2566
18.19	1.1545
17.815	1.0859
17.455	1.0337
17.109	0.9802
16.777	0.9573
16.458	0.9458
16.15	0.9604
15.854	0.9253
15.568	0.7849
15.292	0.7405
15.027	0.9111
14.77	0.9792
14.521	1.1211
14.281	1.292
14.049	1.3735
13.824	1.3433
13.607	1.4421
13.396	1.5727
13.191	1.77
12.993	1.8694
12.8	1.8633
12.614	1.8445
12.432	1.8313
12.256	1.7393
12.084	1.4639
11.918	1.2478
11.755	1.2537
11.598	1.3411
11.444	1.5915
11.294	1.7263
11.149	1.6719
11.007	1.666
10.868	1.7212
10.733	1.7942
10.602	1.7373
10.473	1.4695
10.348	1.3545
10.225	1.405
10.106	1.3061
9.9887	1.2458
9.8746	1.2251
9.763	1.2141
9.6539	1.3069
9.5472	1.3933
9.4429	1.4158
9.3408	1.3362
9.2409	1.2224
9.1431	1.199
9.0474	1.2078
8.9536	1.1523
8.8618	1.1374
8.7718	1.0752
8.6837	1.0906
8.5973	1.0942
8.5126	1.1699
8.4295	1.3213
8.3481	1.5342
8.2682	1.8166
8.1898	2.085
8.1129	2.3201
8.0374	2.5371
7.9634	2.7253
7.8906	2.8904
7.8192	3.0356
7.7491	3.1741
7.6802	3.2808
7.6126	3.3386
7.5461	3.4275
7.4807	3.5364
7.4165	3.6223
7.3534	3.6804
7.2914	3.6738
7.2303	3.7295
7.1703	3.7676
7.1113	3.7651
7.0533	3.9299
6.9962	4.0652
6.94	4.1726
6.8847	4.2444
6.8302	4.342
6.7767	4.6245
6.7239	4.7908
6.672	4.8369
6.6209	4.8005
6.5705	4.7644
6.5209	4.6763
6.4721	4.5112
6.424	4.3259
6.3766	4.1274
6.3299	3.9333
6.2838	3.7856
6.2385	3.7246
6.1937	3.8039
6.1496	3.9966
6.1062	4.2175
6.0633	4.2515
6.0211	4.2126
5.9794	4.3303
5.9383	4.4617
5.8978	4.6123
5.8578	4.7007
5.8184	4.8132
5.7794	4.937
5.741	4.9172
5.7031	4.8257
5.6657	4.7197
5.6288	4.7727
5.5924	5.0146
5.5564	5.2366
5.5209	5.3208
5.4859	5.3371
5.4513	5.3904
5.4171	5.5068
5.3833	5.6352
5.35	5.7241
5.3171	5.7493
5.2846	5.727
5.2524	5.7207
5.2207	5.741
5.1893	5.7588
5.1584	5.7976
5.1277	5.8833
5.0975	5.9724
5.0676	6.0437
5.038	6.1113
5.0088	6.1474
4.98	6.1699
4.9514	6.2485
4.9232	6.3801
4.8953	6.5207
4.8678	6.6152
4.8405	6.6848
4.8135	6.7666
4.7868	6.8625
4.7605	6.9348
4.7344	6.9861
4.7086	7.0346
4.6831	7.0923
4.6578	7.164
4.6328	7.2366
4.6081	7.3003
4.5837	7.3503
4.5595	7.3992
4.5356	7.437
4.5119	7.4709
4.4884	7.4992
4.4652	7.5193
4.4423	7.5451
4.4196	7.5698
4.3971	7.5884
4.3748	7.6035
4.3528	7.6164
4.331	7.6282
4.3094	7.643
4.288	7.6575
4.2668	7.6745
4.2458	7.6941
4.2251	7.7063
4.2045	7.7224
4.1841	7.7419
4.164	7.7546
4.144	7.7588
4.1242	7.7754
4.1046	7.7912
4.0852	7.8015
4.066	7.8034
4.047	7.8093
4.0281	7.8152
4.0094	7.8205
3.9909	7.8181
3.9725	7.8149
3.9544	7.8157
3.9363	7.8127
3.9185	7.813
3.9008	7.8127
3.8833	7.8088
3.8659	7.7966
3.8487	7.7788
3.8316	7.7676
3.8147	7.758
3.7979	7.7497
3.7813	7.7307
3.7648	7.7131
3.7485	7.7012
3.7323	7.6772
3.7162	7.6575
3.7003	7.6445
3.6845	7.6079
3.6689	7.5771
3.6534	7.5732
3.638	7.5466
3.6227	7.5242
3.6076	7.5046
3.5926	7.4778
3.5777	7.4353
3.563	7.3825
3.5484	7.3237
3.5338	7.2361
3.5195	7.0259
3.5052	6.6594
3.491	6.6643
3.477	6.6921
3.463	6.7034
3.4492	6.5412
3.4355	6.3188
3.4219	5.9914
3.4084	6.011
3.395	6.208
3.3817	6.1582
3.3685	6.3611
3.3554	6.6047
3.3425	6.7251
3.3296	6.7825
3.3168	6.7771
3.3041	6.7597
3.2915	6.7339
3.279	6.696
3.2666	6.6533
3.2543	6.6164
3.2421	6.581
3.23	6.5332
3.218	6.4944
3.206	6.4497
3.1942	6.4079
3.1824	6.3625
3.1707	6.3174
3.1591	6.2744
3.1476	6.2366
3.1362	6.2014
3.1249	6.1662
3.1136	6.1274
3.1024	6.0854
3.0913	6.0432
3.0803	6.0076
3.0694	5.9841
3.0585	5.9568
3.0477	5.9238
3.037	5.8887
3.0264	5.8752
3.0158	5.8628
3.0053	5.8718
2.9949	5.8672
2.9845	5.8511
2.9743	5.8464
2.9641	5.8325
2.9539	5.8179
2.9439	5.8288
2.9339	5.8579
2.9239	5.8779
2.9141	5.9206
2.9043	5.9338
2.8946	5.9709
2.8849	6.0088
2.8753	6.043
2.8658	6.0806
2.8563	6.125
2.8469	6.186
2.8375	6.2358
2.8282	6.3025
2.819	6.3733
2.8098	6.4514
2.8007	6.5432
2.7917	6.6284
2.7827	6.717
2.7738	6.8242
2.7649	6.9338
2.7561	7.0361
2.7473	7.1662
2.7386	7.2839
2.7299	7.3962
2.7213	7.4875
2.7128	7.6157
2.7043	7.7532
2.6959	7.8674
2.6875	7.9392
2.6791	7.9775
2.6709	7.989
2.6626	8.0117
2.6545	8.0122
2.6463	8.0088
2.6382	8.0202
2.6302	8.0088
2.6222	8.008
2.6143	8.0002
2.6064	7.9883
2.5986	7.9778
2.5908	7.9807
2.583	7.9787
2.5753	7.9575
2.5677	7.9602
2.5601	7.9702
2.5525	7.9529
2.545	7.9553
2.5375	7.9346
2.5301	7.9311
2.5227	7.9265
2.5154	7.9114
2.5081	7.9018
2.5008	7.8752
2.4936	7.8625
2.4864	7.8413
2.4793	7.8337
2.4722	7.8176
2.4651	7.8157
2.4581	7.8149
2.4511	7.8069
2.4442	7.7912
2.4373	7.7671
2.4305	7.7556
2.4236	7.7475
2.4169	7.7419
2.4101	7.7221
2.4034	7.7173
2.3967	7.6972
2.3901	7.7053
2.3835	7.6997
2.377	7.6968
2.3704	7.6723
2.364	7.6726
2.3575	7.6277
2.3511	7.6452
2.3447	7.6208
2.3384	7.6274
2.3321	7.5945
2.3258	7.5781
2.3195	7.5793
2.3133	7.5476
2.3071	7.5527
2.301	7.5525
2.2949	7.5317
2.2888	7.5417
2.2828	7.5325
2.2767	7.5268
2.2708	7.5034
2.2648	7.5027
2.2589	7.5019
2.253	7.4963
2.2471	7.4883
2.2413	7.4685
2.2355	7.47
2.2297	7.4746
2.224	7.4656
2.2183	7.4475
2.2126	7.4416
2.207	7.4133
2.2013	7.4226
2.1957	7.3989
2.1902	7.3972
2.1846	7.4165
2.1791	7.3882
2.1736	7.3906
2.1682	7.3742
2.1628	7.3628
2.1574	7.3293
2.152	7.3447
2.1466	7.3684
2.1413	7.3227
2.136	7.3208
2.1308	7.311
2.1255	7.3061
2.1203	7.2776
2.1151	7.2873
2.11	7.2668
2.1048	7.2898
2.0997	7.2654
2.0946	7.2363
2.0895	7.2615
2.0845	7.2153
2.0795	7.2075
