Name: Labradorite (Na,Ca)Al(Al,Si)Si2O8
Type: Mineral
Class: Silicates
Subclass: Tectosilicates (Framework Silicates); (Feldspar Group)
Particle Size: Course  (75-250 micrometers)
Sample No.: labrador.1
Owner: JHU
Wavelength Range: IR
Origin: Lake County, Oregon, acquired from the Smithsonian (sample
Description: The sample consisted of a 2 cm x 1 cm x 0.2 cm, 0.536 g
Measurement: Bidirectional reflectance
X Units: Wavelength (micrometers)
Y Units: Reflectance (percent)
wavelength	value
25.0442	6.7139
24.3388	5.8545
23.6719	5.8799
23.0407	5.2558
22.4422	4.4556
21.8741	4.1858
21.334	4.4802
20.8199	4.2097
20.33	3.6855
19.8627	4.0513
19.4163	4.5283
18.9896	4.9939
18.5812	6.1875
18.19	5.938
17.815	6.0234
17.4551	7.0522
17.1094	7.1421
16.7772	7.3435
16.4576	7.0871
16.15	6.3992
15.8537	6.5608
15.568	5.7085
15.2925	3.4175
15.0265	2.3403
14.7697	2.4692
14.5214	2.5532
14.2814	2.6719
14.0492	2.8274
13.8244	3.0564
13.6067	3.1096
13.3957	3.1611
13.1912	3.178
12.9929	3.072
12.8004	2.8652
12.6135	2.7126
12.432	2.9189
12.2557	3.28
12.0843	3.5901
11.9176	3.8367
11.7555	4.0434
11.5977	4.2849
11.444	4.6323
11.2944	5.1897
11.1487	5.9028
11.0067	6.5124
10.8682	7.0596
10.7332	7.4504
10.6015	7.7095
10.473	7.852
10.3476	7.7695
10.2251	7.7573
10.1056	7.9319
9.98873	8.0034
9.87458	7.8899
9.763	7.6518
9.65392	7.3054
9.54724	6.8601
9.44291	6.384
9.34082	6.0061
9.24091	5.7305
9.14312	5.8213
9.04739	6.1833
8.95363	6.5835
8.8618	7.0234
8.77183	7.3928
8.68368	7.6936
8.59727	7.8718
8.51257	7.8796
8.42951	7.7453
8.34807	7.3537
8.26819	6.0159
8.18981	3.9382
8.11292	2.1277
8.03745	0.8745
7.96337	0.3923
7.89064	0.4321
7.81924	0.5679
7.74911	0.7166
7.68023	0.8755
7.61256	1.0051
7.54608	1.1226
7.48074	1.2224
7.41653	1.324
7.35341	1.426
7.29136	1.5188
7.23034	1.6003
7.17033	1.6702
7.11132	1.7458
7.05327	1.8096
6.99616	1.8735
6.93996	1.9214
6.88467	1.9607
6.83024	1.9839
6.77667	2.022
6.72393	2.0527
6.67201	2.0693
6.62089	2.1001
6.57054	2.1265
6.52095	2.1536
6.4721	2.1667
6.42398	2.1692
6.37657	2.1782
6.32986	2.1931
6.28382	2.1999
6.23845	2.2153
6.19373	2.2241
6.14965	2.2383
6.10619	2.2634
6.06334	2.2729
6.02109	2.2952
5.97942	2.3384
5.93832	2.3733
5.89778	2.4456
5.8578	2.5273
5.81835	2.6077
5.77943	2.687
5.74103	2.7624
5.70314	2.8315
5.66574	2.9043
5.62883	2.9824
5.5924	3.0659
5.55644	3.1592
5.52093	3.2222
5.48588	3.2934
5.45127	3.3728
5.41709	3.4773
5.38334	3.6057
5.35	3.7427
5.31708	3.8894
5.28456	4.0391
5.25243	4.1953
5.2207	4.3823
5.18934	4.595
5.15836	4.8276
5.12775	5.0903
5.09749	5.3559
5.0676	5.6245
5.03805	5.8679
5.00884	6.0962
4.97998	6.3166
4.95144	6.4895
4.92322	6.6474
4.89533	6.7851
4.86775	6.9319
4.84048	7.081
4.81351	7.2363
4.78684	7.3735
4.76047	7.5478
4.73439	7.7344
4.70859	7.9446
4.68306	8.1997
4.65782	8.4822
4.63284	8.7702
4.60814	9.0869
4.58369	9.4065
4.5595	9.7146
4.53557	10.0271
4.51188	10.3132
4.48845	10.592
4.46525	10.8359
4.44229	11.0586
4.41957	11.2942
4.39708	11.4951
4.37481	11.7185
4.35277	11.9526
4.33096	12.1674
4.30935	12.417
4.28797	12.6748
4.26679	12.9109
4.24583	13.1433
4.22506	13.3259
4.2045	13.4712
4.18414	13.6045
4.16398	13.7014
4.14401	13.7663
4.12423	13.8274
4.10464	13.883
4.08523	13.9231
4.066	13.9616
4.04696	14.0051
4.02809	14.0505
4.0094	14.0727
3.99088	14.0925
3.97253	14.1237
3.95435	14.165
3.93634	14.2131
3.91848	14.2622
3.90079	14.3095
3.88326	14.3413
3.86589	14.3776
3.84867	14.4023
3.8316	14.4355
3.81468	14.4663
3.79791	14.4941
3.78129	14.5258
3.76482	14.5481
3.74848	14.56
3.73229	14.5715
3.71624	14.5769
3.70032	14.573
3.68454	14.5839
3.6689	14.5859
3.65338	14.5925
3.638	14.594
3.62275	14.5966
3.60762	14.6084
3.59262	14.6115
3.57775	14.6042
3.56299	14.5966
3.54836	14.5747
3.53385	14.5402
3.51945	14.445
3.50517	14.0737
3.49101	14.2832
3.47696	14.3488
3.46303	14.3513
3.4492	14.2585
3.43549	14.0925
3.42188	13.7197
3.40838	13.8928
3.39499	14.1733
3.38171	14.2153
3.36852	14.331
3.35544	14.4741
3.34246	14.5559
3.32958	14.5854
3.3168	14.5996
3.30411	14.6157
3.29153	14.6147
3.27903	14.5952
3.26664	14.5839
3.25433	14.5808
3.24212	14.5744
3.23	14.561
3.21797	14.5529
3.20603	14.5568
3.19418	14.5642
3.18241	14.5578
3.17074	14.5412
3.15914	14.5097
3.14763	14.5073
3.13621	14.4795
3.12487	14.4558
3.11361	14.4533
3.10243	14.4509
3.09133	14.4275
3.0803	14.4145
3.06936	14.3962
3.0585	14.3769
3.04771	14.3588
3.037	14.3513
3.02636	14.3562
3.0158	14.3432
3.00531	14.3161
2.99489	14.3029
2.98454	14.3339
2.97427	14.3342
2.96407	14.3452
2.95393	14.3698
2.94387	14.4057
2.93387	14.4238
2.92394	14.4401
2.91408	14.4511
2.90429	14.5048
2.89456	14.5505
2.88489	14.5808
2.87529	14.5764
2.86576	14.653
2.85628	14.7085
2.84687	14.7451
2.83752	14.7705
2.82823	14.8005
2.81901	14.8254
2.80984	14.8606
2.80073	14.8735
2.79168	14.8947
2.78269	14.9174
2.77376	14.8979
2.76488	14.924
2.75606	14.9348
2.7473	15.0219
2.73859	15.0593
2.72994	15.0979
2.72134	15.113
2.7128	15.143
2.70431	15.1557
2.69587	15.2277
2.68748	15.3537
2.67915	15.3857
2.67087	15.3967
2.66264	15.4226
2.65446	15.3884
2.64633	15.3857
2.63825	15.4238
2.63021	15.4292
2.62223	15.4277
2.6143	15.4199
2.60641	15.3984
2.59857	15.4592
2.59078	15.4736
2.58304	15.4729
2.57534	15.4926
2.56768	15.4814
2.56008	15.4619
2.55251	15.4741
2.54499	15.4799
2.53752	15.4865
2.53009	15.4633
2.5227	15.4331
2.51536	15.448
2.50806	15.4575
2.5008	15.4582
2.49358	15.4462
2.4864	15.4238
2.47927	15.413
2.47218	15.395
2.46512	15.3715
2.45811	15.3886
2.45114	15.3828
2.4442	15.3745
2.43731	15.3608
2.43045	15.3325
2.42363	15.3403
2.41685	15.3671
2.41011	15.3593
2.40341	15.3493
2.39674	15.3137
2.39011	15.2822
2.38352	15.3017
2.37696	15.3029
2.37044	15.3149
2.36395	15.2863
2.35751	15.2492
2.35109	15.2749
2.34471	15.2473
2.33836	15.2255
2.33205	15.2326
2.32578	15.229
2.31953	15.1333
2.31332	15.1523
2.30714	15.1308
2.301	15.123
2.29489	15.0813
2.28881	15.0988
2.28276	15.0832
2.27675	15.0981
2.27076	15.0217
2.26481	15.0649
2.25889	15.0703
2.253	15.0214
2.24714	14.9912
2.24131	14.9992
2.23551	15.0112
2.22974	14.9682
2.224	14.9599
2.21829	14.9875
2.21261	14.9677
2.20696	14.8955
2.20134	14.913
2.19574	14.966
2.19018	14.9289
2.18464	14.9279
2.17913	14.893
2.17365	14.9133
2.16819	14.853
2.16277	14.9065
2.15737	14.8759
2.15199	14.8818
2.14665	14.7963
2.14133	14.873
2.13603	14.8198
2.13077	14.8261
2.12552	14.7375
2.12031	14.8086
2.11512	14.8164
2.10995	14.8098
2.10481	14.802
2.0997	14.7685
2.09461	14.843
2.08954	14.8691
2.0845	14.7961
2.07948	14.7959
