Name: Travertine
Type: Rocks
Class: Sedimentary
Subclass: Travertine
Particle Size: 0 - 75 Micrometers
Sample No.: travertine.1
Owner: JHU
Wavelength Range: All
Origin: Sample No. 357,  The Hunt and Salisbury Collection at the U.S.
Description: A predominantly microcrystalline carbonate with vugs
Measurement: Directional (10 Degree) Hemispherical Reflectance
X Units: Wavelength (micrometers)
Y Units: Reflectance (percent)
wavelength	value
14.983	17.677
14.686	19.122
14.361	15.944
14.049	1.2364
13.751	17.547
13.465	23.409
13.191	23.593
12.928	22.452
12.675	23.408
12.432	25.132
12.198	26.772
11.973	26.963
11.755	18.245
11.546	7.5528
11.344	5.371
11.149	23.016
10.96	23.975
10.778	24.082
10.602	24.53
10.431	26.738
10.266	25.726
10.106	23.494
9.95	19.776
9.8	19.836
9.654	20.269
9.512	23.383
9.375	23.406
9.241	19.854
9.111	24.043
8.985	24.6
8.862	24.384
8.742	20.609
8.626	16.816
8.513	16.42
8.402	18.795
8.295	21.698
8.19	22.21
8.088	20.776
7.988	20.725
7.891	18.93
7.796	17.532
7.703	15.481
7.613	12.222
7.524	10.869
7.438	9.0234
7.353	6.7561
7.271	4.5871
7.19	3.6661
7.111	4.0266
7.034	3.9394
6.959	3.691
6.885	3.8326
6.812	4.0055
6.741	4.2506
6.672	4.648
6.604	5.497
6.537	6.7384
6.472	8.3629
6.408	7.9374
6.345	4.9468
6.284	3.4634
6.223	3.1338
6.164	2.986
6.106	3.3173
6.049	4.1386
5.993	5.5062
5.938	7.0806
5.884	8.8598
5.831	9.8241
5.779	10.132
5.728	11.387
5.678	13.902
5.629	13.734
5.58	2.3722
5.533	11.882
5.486	26.637
5.44	34.401
5.394	40.496
5.35	45.144
5.306	48.814
5.263	51.232
5.221	53.051
5.179	54.371
5.138	55.272
5.098	51.616
5.058	56.835
5.019	56.949
4.98	56.902
4.942	56.759
4.905	56.797
4.868	56.847
4.832	56.847
4.796	56.585
4.761	55.212
4.726	50.448
4.691	41.737
4.658	41.626
4.625	48.542
4.592	51.171
4.559	51.771
4.528	51.988
4.496	52.78
4.465	54.795
4.435	56.388
4.404	57.2
4.375	57.381
4.346	56.512
4.316	56.292
4.288	53.835
4.26	52.283
4.232	56.255
4.205	55.966
4.177	54.972
4.151	53.211
4.124	50.341
4.098	46.582
4.072	40.917
4.047	31.193
4.022	17.768
3.997	8.4903
3.973	6.466
3.948	11.211
3.924	16.733
3.901	18.377
3.877	19.215
3.854	20.148
3.832	24.519
3.809	34.116
3.787	46.314
3.765	49.911
3.743	50.83
3.722	51.481
3.7	51.41
3.679	50.929
3.659	50.076
3.638	48.881
3.618	47.399
3.598	45.191
3.578	41.08
3.558	38.373
3.539	32.389
3.519	21.942
3.5	16.332
3.482	13.052
3.463	17.913
3.445	20.322
3.426	20.465
3.408	19.946
3.391	19.142
3.373	18.368
3.355	16.125
3.338	23.834
3.321	30.219
3.304	31.365
3.287	31.601
3.271	31.425
3.254	31.053
3.238	30.545
3.222	29.994
3.206	29.356
3.19	28.722
3.175	27.923
3.159	27.032
3.144	26.39
3.129	25.885
3.114	25.188
3.099	24.856
3.084	24.732
3.069	24.576
3.055	24.409
3.041	24.279
3.026	24.119
3.012	23.891
2.998	23.737
2.985	23.596
2.971	23.505
2.957	23.471
2.944	23.571
2.931	23.705
2.917	24.056
2.904	24.494
2.891	25.053
2.878	25.786
2.866	26.56
2.853	27.537
2.841	28.649
2.828	29.915
2.816	31.291
2.804	32.647
2.792	33.883
2.78	36.1
2.768	37.921
2.756	41.322
2.744	44.799
2.733	48.823
2.721	54.545
2.71	53.234
2.699	59.626
2.688	70.304
2.676	73.832
2.665	75.569
2.655	77.032
2.644	78.009
2.633	78.408
2.622	78.922
2.612	79.24
2.601	79.282
2.591	78.834
2.58	78.133
2.57	77.059
2.56	74.475
2.55	69.824
2.54	65.777
2.53	66.374
2.52	69.037
2.511	70.553
2.501	71.24
2.491	72.052
2.482	73.407
2.472	75.412
2.463	77.508
2.454	79.131
2.444	80.316
2.435	81.437
2.426	82.31
2.417	83.086
2.408	83.542
2.399	83.815
2.39	84.084
2.381	83.927
2.373	83.231
2.364	81.563
2.355	78.8
2.347	76.539
2.338	75.965
2.33	77.127
2.322	78.547
2.313	79.608
2.305	80.078
2.297	80.718
2.289	81.622
2.281	82.737
2.273	83.849
2.265	84.839
2.257	85.621
2.249	86.265
2.241	86.846
2.234	87.261
2.226	87.633
2.218	87.767
2.211	87.586
2.203	87.931
2.196	88.133
2.188	88.117
2.181	88.046
2.174	87.785
2.166	87.658
2.159	87.545
2.152	87.547
2.145	87.803
2.138	88.021
2.131	88.089
2.124	88.161
2.117	88.01
2.11	88.121
2.103	88.053
2.096	87.982
2.09	87.923
2.083	87.95
2.06	88.17
2.028	86.345
1.996	83.289
1.964	81.631
1.932	79.462
1.9	86.721
1.868	86.799
1.836	87.491
1.804	88.431
1.772	87.748
1.74	87.95
1.708	87.95
1.676	87.887
1.644	88.023
1.612	87.558
1.58	88.024
1.548	87.885
1.516	86.874
1.484	86.49
1.452	85.725
1.42	85.385
1.388	87.201
1.356	87.633
1.324	87.195
1.292	86.814
1.26	87.288
1.228	87.751
1.196	87.032
1.164	85.748
1.132	86.545
1.1	86.293
1.068	86.377
1.036	84.826
1.004	84.528
0.972	83.717
0.94	83.337
0.908	82.481
0.876	82.191
0.844	82.087
0.812	82.304
0.795	82.328
0.787	81.71
0.779	81.861
0.771	81.304
0.763	80.914
0.755	80.914
0.747	80.866
0.739	80.037
0.731	79.93
0.723	78.848
0.715	78.959
0.707	78.81
0.699	78.152
0.691	77.864
0.683	77.49
0.675	77.089
0.667	77.014
0.659	75.35
0.651	75.77
0.643	74.847
0.635	73.94
0.627	73.754
0.619	72.9
0.611	71.631
0.603	70.732
0.595	69.876
0.587	68.427
0.579	66.807
0.571	64.947
0.563	62.918
0.555	59.695
0.547	58.467
0.539	56.889
0.531	55.325
0.523	54.034
0.515	53.094
0.507	52.012
0.499	50.774
0.491	49.695
0.483	48.118
0.475	47.224
0.467	46.122
0.459	45.07
0.451	43.915
0.443	42.744
0.435	41.258
0.427	40.066
0.419	38.772
0.411	37.817
0.403	36.491
