Name: Quartz Monzonite
Type: Rocks
Class: Igneous
Subclass: Intermediate
Particle Size: Solid
Sample No.: Qmonzonite.H1
Owner: JHU
Origin: Santa Rita Mountains, Arizona, via Smithsonian (Cat. No. NMNH
Description: A light gray medium-grained rock composed of pink feldspar,
Measurement: Directional (10 degree) hemispherical reflectance
X Units: Wavelength (micrometers)
Y Units: Reflectance (percent)
wavelength	value
14.0112	1.4925
13.7147	2.8425
13.4304	2.4228
13.1577	2.9484
12.8959	3.728
12.6443	2.9501
12.4023	3.2346
12.1694	2.5938
11.945	3.2128
11.7289	3.9145
11.5203	4.4142
11.3191	4.9158
11.1248	5.5017
10.937	6.1716
10.7555	6.9159
10.5799	7.8042
10.4099	9.1127
10.2454	11.2356
10.0859	14.3412
9.9313	17.6366
9.7814	18.561
9.636	19.2288
9.4948	19.7168
9.3577	19.608
9.2245	21.1195
9.095	20.136
8.9691	19.2914
8.8467	20.5937
8.7275	21.2257
8.6116	20.403
8.4986	23.6864
8.3886	21.5467
8.2814	16.6561
8.1769	12.0691
8.075	6.3073
7.9756	3.0996
7.8786	1.4444
7.784	0.851
7.6916	0.5519
7.6014	0.4137
7.5133	0.4249
7.4272	0.4652
7.343	0.5226
7.2607	0.585
7.1803	0.6867
7.1016	0.779
7.0246	0.8381
6.9493	0.9115
6.8755	0.9872
6.8034	1.0413
6.7327	1.0657
6.6634	1.1452
6.5956	1.1892
6.5292	1.2258
6.464	1.302
6.4002	1.3167
6.3376	1.3812
6.2762	1.387
6.216	1.3992
6.157	1.4379
6.099	1.5082
6.0421	1.5665
5.9863	1.5858
5.9315	1.6085
5.8777	1.6678
5.8249	1.7264
5.773	1.7613
5.722	1.7899
5.6719	1.8441
5.6227	1.8473
5.5744	1.9088
5.5268	1.95
5.4801	2.002
5.4341	2.0418
5.3889	2.0761
5.3445	2.0717
5.3008	2.1127
5.2578	2.156
5.2154	2.2308
5.1738	2.2903
5.1328	2.3639
5.0925	2.4293
5.0528	2.448
5.0137	2.5228
4.9752	2.6163
4.9373	2.6922
4.9	2.7818
4.8632	2.9039
4.827	3.0302
4.7913	3.0698
4.7561	3.1387
4.7215	3.2171
4.6873	3.2172
4.6536	3.3192
4.6205	3.5241
4.5877	3.6761
4.5555	3.8309
4.5237	3.9468
4.4923	4.0047
4.4614	4.2082
4.4309	4.4535
4.4008	4.7686
4.3711	5.2153
4.3418	5.7031
4.3129	6.1408
4.2844	6.4959
4.2563	6.9806
4.2285	7.3713
4.2011	7.7081
4.174	8.1072
4.1473	8.4537
4.1209	8.853
4.0949	9.22
4.0692	9.5649
4.0438	9.7237
4.0187	9.8196
3.994	9.9272
3.9695	10.1892
3.9453	10.5321
3.9214	10.8005
3.8979	10.9256
3.8746	10.9371
3.8515	11.047
3.8288	11.286
3.8063	11.5158
3.7841	11.5891
3.7621	11.5577
3.7404	11.546
3.7189	11.6564
3.6977	11.9407
3.6767	12.2135
3.656	12.3467
3.6355	12.3293
3.6152	12.2498
3.5951	12.1535
3.5753	12.0049
3.5557	11.8502
3.5363	11.6231
3.5171	11.1771
3.4981	10.5709
3.4793	10.5691
3.4607	10.3987
3.4423	9.9106
3.4241	9.1938
3.4061	8.9355
3.3883	8.8884
3.3707	8.607
3.3533	8.5652
3.336	8.3135
3.3189	7.9844
3.302	7.6898
3.2853	7.3823
3.2687	7.1004
3.2523	6.8313
3.2361	6.5576
3.22	6.2953
3.204	6.0682
3.1883	5.8696
3.1727	5.6758
3.1572	5.5078
3.1419	5.348
3.1268	5.1829
3.1117	5.0901
3.0969	5.0533
3.0821	5.0028
3.0675	4.9294
3.0531	4.8834
3.0388	4.8787
3.0246	4.8342
3.0105	4.8127
2.9966	4.8119
2.9828	4.7405
2.9692	4.7867
2.9556	4.7041
2.9422	4.7104
2.9289	4.7632
2.9157	4.8115
2.9027	4.8649
2.8897	4.9558
2.8769	5.0355
2.8642	5.0681
2.8516	5.1546
2.8391	5.3226
2.8267	5.3953
2.8144	5.4804
2.8022	5.5594
2.7902	5.6836
2.7782	5.7942
2.7664	5.8956
2.7546	6.1528
2.7429	6.7078
2.7314	7.4932
2.7199	8.9484
2.7085	10.6117
2.6973	12.0161
2.6861	15.546
2.675	17.5623
2.664	18.5369
2.6531	19.143
2.6423	19.6049
2.6315	20.0517
2.6209	20.3505
2.6103	20.5096
2.5999	20.7965
2.5895	21.0044
2.5792	21.0332
2.569	21.2257
2.5588	21.307
2.5487	21.4397
2.5388	21.5212
2.5289	21.6994
2.519	21.8001
2.5093	21.9327
2.4996	22.06
2.49	22.1986
2.4805	22.499
2.471	22.7364
2.4616	22.9396
2.4523	23.0226
2.4431	23.2366
2.4339	23.4304
2.4248	23.6934
2.4157	23.8762
2.4068	24.1706
2.3979	24.2041
2.389	24.2812
2.3802	24.397
2.3715	24.5676
2.3629	24.5235
2.3543	24.5906
2.3458	24.6131
2.3373	24.9571
2.3289	25.1418
2.3206	25.5065
2.3123	25.7529
2.3041	25.8944
2.2959	26.175
2.2878	26.2186
2.2798	26.4876
2.2718	26.4688
2.2638	26.5628
2.2559	26.5711
2.2481	26.5513
2.2403	26.7534
2.2326	26.9671
2.225	26.788
2.2173	26.7545
2.2098	26.4632
2.2023	26.4705
2.1948	26.6402
2.1874	26.7848
2.18	27.1124
2.1727	27.2732
2.1655	27.4483
2.1583	27.5664
2.1511	27.6018
2.144	27.7311
2.1369	27.7361
2.1299	27.7963
2.1229	27.7223
2.116	27.6667
2.1091	27.7454
2.1023	27.7176
2.0955	27.689
2.0887	27.7256
2.082	27.6548
2.06	27.5287
2.028	27.1393
1.996	26.6706
1.964	25.5965
1.932	24.7516
1.9	24.618
1.868	28.6327
1.836	29.5062
1.804	29.8021
1.772	29.9447
1.74	29.9666
1.708	30.2407
1.676	30.2695
1.644	30.3142
1.612	30.5537
1.58	30.3559
1.548	30.5601
1.516	30.77
1.484	30.0899
1.452	29.9219
1.42	29.5305
1.388	29.8655
1.356	30.9889
1.324	31.4058
1.292	31.3111
1.26	31.5422
1.228	31.3509
1.196	31.6977
1.164	31.8027
1.132	32.3261
1.1	32.1611
1.068	32.8129
1.036	32.759
1.004	33.1677
0.972	33.2188
0.94	33.3642
0.908	33.3265
0.876	33.2854
0.844	33.3093
0.812	34.1649
0.795	33.8299
0.787	33.529
0.779	34.2237
0.771	33.9326
0.763	33.7966
0.755	33.6848
0.747	33.7566
0.739	33.5855
0.731	33.7094
0.723	33.3991
0.715	33.2261
0.707	33.1204
0.699	32.5065
0.691	32.3483
0.683	32.0154
0.675	31.5085
0.667	31.9158
0.659	31.6632
0.651	31.7052
0.643	31.6057
0.635	31.0572
0.627	30.9904
0.619	31.308
0.611	31.1873
0.603	30.8444
0.595	30.7751
0.587	30.6143
0.579	30.0006
0.571	29.8111
0.563	29.2424
0.555	28.9772
0.547	27.8337
0.539	27.4973
0.531	26.6032
0.523	26.0855
0.515	25.2715
0.507	24.8828
0.499	23.7654
0.491	23.2823
0.483	22.6324
0.475	21.7838
0.467	21.778
0.459	20.9094
0.451	20.5477
0.443	19.8745
0.435	19.1949
0.427	18.2183
0.419	17.4138
0.411	16.6387
0.403	15.9478
