Name: Vermiculite (Mg,Fe+2,Al)3(Al,Si)4O10(OH)2.4H2O
Type: Mineral
Class: Silicates
Subclass: Phyllosilicates (Sheet Silicates); (Vermiculite Group)
Particle Size: Fine  (Less than 2 Micrometers)
Sample No.: vermicul.1
Owner: JHU
Wavelength Range: IR
Origin: Llano, Texas via Norma Vergo #VTx-1 (CMS) (purchased from
Description: White, earthy clay.  XRD analysis indicates pure vermiculite for the
Measurement: Transmission
X Units: Wavelength (micrometers)
Y Units: Transmittance (percent)
wavelength	value
25.0442	53.9374
24.3388	49.8124
23.6719	45.5643
23.0407	38.8085
22.4422	34.2968
21.8741	31.1269
21.334	33.0116
20.8199	41.411
20.33	46.7235
19.8627	50.5272
19.4163	53.3358
18.9896	56.5741
18.5812	63.0809
18.19	68.9754
17.815	72.576
17.4551	74.3475
17.1094	74.9295
16.7772	75.0281
16.4576	73.6717
16.15	72.4671
15.8537	70.9041
15.568	68.8382
15.2925	66.9647
15.0265	66.7498
14.7697	67.8773
14.5214	68.7523
14.2814	70.5897
14.0492	73.2303
13.8244	74.2269
13.6067	75.1365
13.3957	76.9803
13.1912	78.406
12.9929	79.4187
12.8004	80.9866
12.6135	82.3909
12.432	81.7781
12.2557	79.1585
12.0843	78.0428
11.9176	80.8582
11.7555	82.6072
11.5977	81.1951
11.444	78.6292
11.2944	75.5535
11.1487	70.8758
11.0067	64.8455
10.8682	59.785
10.7332	54.4632
10.6015	47.6532
10.473	39.7267
10.3476	34.3859
10.2251	31.5929
10.1056	30.5099
9.98873	32.724
9.87458	37.9047
9.763	42.4669
9.65392	45.8077
9.54724	49.3566
9.44291	52.4025
9.34082	55.4984
9.24091	59.1375
9.14312	63.0028
9.04739	66.7894
8.95363	70.4359
8.8618	73.451
8.77183	75.618
8.68368	77.3477
8.59727	78.9226
8.51257	80.0088
8.42951	81.0176
8.34807	81.9295
8.26819	82.7422
8.18981	83.4514
8.11292	84.1497
8.03745	84.7234
7.96337	85.3045
7.89064	85.7891
7.81924	86.0491
7.74911	86.4334
7.68023	86.7185
7.61256	87.0164
7.54608	87.3811
7.48074	87.5896
7.41653	87.8067
7.35341	87.9651
7.29136	88.0764
7.23034	88.1619
7.17033	88.5742
7.11132	88.5564
7.05327	88.1863
6.99616	87.8682
6.93996	87.9785
6.88467	88.0701
6.83024	88.2197
6.77667	88.4817
6.72393	88.7796
6.67201	89.1944
6.62089	89.6316
6.57054	90.124
6.52095	90.24
6.4721	90.4583
6.42398	90.627
6.37657	90.5183
6.32986	90.3789
6.28382	89.9912
6.23845	89.2547
6.19373	87.8467
6.14965	85.3321
6.10619	83.4519
6.06334	83.0774
6.02109	83.9492
5.97942	85.345
5.93832	86.3389
5.89778	87.657
5.8578	88.8992
5.81835	90.1399
5.77943	90.8555
5.74103	91.4072
5.70314	91.7483
5.66574	91.9883
5.62883	92.3035
5.5924	92.4939
5.55644	92.6687
5.52093	92.7927
5.48588	92.8701
5.45127	93.031
5.41709	93.2297
5.38334	93.2312
5.35	93.471
5.31708	93.5227
5.28456	93.6875
5.25243	93.7832
5.2207	93.8975
5.18934	93.9617
5.15836	94.0381
5.12775	94.0625
5.09749	94.1299
5.0676	94.1816
5.03805	94.2246
5.00884	94.2117
4.97998	94.2224
4.95144	94.2678
4.92322	94.2156
4.89533	94.2295
4.86775	94.2351
4.84048	94.283
4.81351	94.3076
4.78684	94.3406
4.76047	94.3162
4.73439	94.3301
4.70859	94.3516
4.68306	94.3997
4.65782	94.4258
4.63284	94.4031
4.60814	94.5625
4.58369	94.4102
4.5595	94.3652
4.53557	94.3242
4.51188	94.3601
4.48845	94.2478
4.46525	94.2207
4.44229	94.2068
4.41957	94.1785
4.39708	94.1423
4.37481	94.1631
4.35277	94.1755
4.33096	94.1641
4.30935	94.1834
4.28797	94.2136
4.26679	94.2178
4.24583	94.3027
4.22506	94.3174
4.2045	94.3311
4.18414	94.4148
4.16398	94.4255
4.14401	94.4893
4.12423	94.5408
4.10464	94.5515
4.08523	94.6189
4.066	94.6223
4.04696	94.7004
4.02809	94.7376
4.0094	94.7224
3.99088	94.7459
3.97253	94.6975
3.95435	94.8035
3.93634	94.7878
3.91848	94.8704
3.90079	94.8665
3.88326	94.8411
3.86589	94.8123
3.84867	94.821
3.8316	94.7712
3.81468	94.7834
3.79791	94.7283
3.78129	94.7097
3.76482	94.6003
3.74848	94.5305
3.73229	94.4876
3.71624	94.4138
3.70032	94.3108
3.68454	94.1174
3.6689	94.0291
3.65338	93.9128
3.638	93.7581
3.62275	93.5676
3.60762	93.4631
3.59262	93.283
3.57775	93.1038
3.56299	92.9041
3.54836	92.6668
3.53385	92.4456
3.51945	92.1189
3.50517	91.9041
3.49101	91.5613
3.47696	91.2385
3.46303	90.9607
3.4492	90.6194
3.43549	90.3298
3.42188	89.865
3.40838	89.3557
3.39499	88.9964
3.38171	88.5823
3.36852	88.2166
3.35544	87.6218
3.34246	87.1209
3.32958	86.5623
3.3168	86.0315
3.30411	85.5408
3.29153	84.9886
3.27903	84.4046
3.26664	83.8142
3.25433	83.2478
3.24212	82.8245
3.23	82.1682
3.21797	81.6214
3.20603	81.0398
3.19418	80.3772
3.18241	79.7679
3.17074	79.1429
3.15914	78.5242
3.14763	77.9305
3.13621	77.2879
3.12487	76.637
3.11361	75.9671
3.10243	75.199
3.09133	74.5232
3.0803	74.1937
3.06936	73.9476
3.0585	73.4691
3.04771	73.0433
3.037	72.5057
3.02636	71.8026
3.0158	70.9295
3.00531	70.0428
2.99489	69.0467
2.98454	68.0101
2.97427	67.0277
2.96407	66.3968
2.95393	65.9862
2.94387	65.8446
2.93387	65.8953
2.92394	66.033
2.91408	66.3055
2.90429	66.6571
2.89456	67.0731
2.88489	67.6033
2.87529	67.9608
2.86576	68.4373
2.85628	68.993
2.84687	69.5819
2.83752	70.1502
2.82823	70.7703
2.81901	71.6092
2.80984	72.243
2.80073	72.9627
2.79168	73.824
2.78269	74.8934
2.77376	76.1561
2.76488	77.4559
2.75606	78.8064
2.7473	80.0672
2.73859	81.3084
2.72994	82.1844
2.72134	81.1258
2.7128	80.8689
2.70431	83.4217
2.69587	84.5232
2.68748	85.2703
2.67915	86.3299
2.67087	86.8865
2.66264	87.0095
2.65446	87.1453
2.64633	87.3328
2.63825	87.3943
2.63021	87.4656
2.62223	87.5857
2.6143	87.5662
2.60641	87.6638
2.59857	87.7039
2.59078	87.6912
2.58304	87.8328
2.57534	87.6804
2.56768	87.7576
2.56008	87.9304
2.55251	87.6843
2.54499	87.6248
2.53752	87.825
2.53009	87.8367
2.5227	87.4812
2.51536	87.6795
2.50806	87.8045
2.5008	87.7859
2.49358	87.6873
2.4864	87.6804
2.47927	87.6677
2.47218	87.7224
2.46512	87.5506
2.45811	87.5896
2.45114	87.5711
2.4442	87.4158
2.43731	87.4646
2.43045	87.6306
2.42363	87.5974
2.41685	87.4275
2.41011	87.4881
2.40341	87.5857
2.39674	87.4158
2.39011	87.242
2.38352	87.3826
2.37696	87.3689
2.37044	87.4822
2.36395	87.3045
2.35751	87.281
2.35109	87.4959
2.34471	87.1717
2.33836	87.158
2.33205	87.0193
2.32578	87.1404
2.31953	87.3924
2.31332	87.3709
2.30714	87.1248
2.301	87.2908
2.29489	87.2263
2.28881	87.4763
2.28276	87.3064
2.27675	87.406
2.27076	87.2576
2.26481	87.4842
2.25889	87.2537
2.253	87.3865
2.24714	87.3924
2.24131	87.4451
2.23551	87.5506
2.22974	87.6209
2.224	87.5467
2.21829	87.3552
2.21261	87.6189
2.20696	87.4646
2.20134	87.5252
2.19574	87.5154
2.19018	87.5935
2.18464	87.4959
2.17913	87.4724
2.17365	87.7439
2.16819	87.7693
2.16277	87.8943
2.15737	87.7986
2.15199	87.7049
2.14665	87.697
2.14133	87.8201
2.13603	88.0408
2.13077	88.1248
2.12552	87.906
2.12031	88.2283
2.11512	87.9939
2.10995	88.0232
2.10481	88.0799
2.0997	88.281
2.09461	88.7361
2.08954	88.2517
2.0845	88.2888
2.07948	88.4529
