Name: Pyrope Mg3Al2(SiO4)3
Type: Mineral
Class: Silicates
Subclass: Nesosilicates (Isolated tetrahedra); Garnet Group
Particle Size: Coarse  (75 - 250  Micrometers)
Sample No.: pyrope.1
Owner: JHU
Wavelength Range: IR
Origin: Finsch Mine, Brits Farm, 23 miles E. of Posemasburg, Cape
Description: The sample consisted of many rounded (tumbled?)
Measurement: Bidirectional reflectance
X Units: Wavelength (micrometers)
Y Units: Reflectance (percent)
wavelength	value
25.0442	2.9602
24.3388	3.1943
23.6719	3.4575
23.0407	4.5666
22.4422	6.7075
21.8741	8.4812
21.334	6.7829
20.8199	8.8708
20.33	9.3869
19.8627	9.0766
19.4163	7.6372
18.9896	5.4827
18.5812	5.9087
18.19	2.6897
17.815	1.9631
17.4551	4.9197
17.1094	6.5471
16.7772	6.0666
16.4576	4.5244
16.15	2.0693
15.8537	0.5535
15.568	0.4739
15.2925	0.6692
15.0265	0.8237
14.7697	1.0557
14.5214	1.1982
14.2814	1.3047
14.0492	1.4319
13.8244	1.5215
13.6067	1.6255
13.3957	1.696
13.1912	1.7878
12.9929	1.9287
12.8004	2.0471
12.6135	2.2275
12.432	2.4123
12.2557	2.563
12.0843	2.9219
11.9176	3.428
11.7555	4.1748
11.5977	5.2507
11.444	5.6853
11.2944	4.8396
11.1487	6.3035
11.0067	6.6448
10.8682	5.582
10.7332	3.1086
10.6015	1.9582
10.473	3.5725
10.3476	7.1848
10.2251	9.3694
10.1056	10.1545
9.98873	10.4992
9.87458	10.414
9.763	9.9126
9.65392	9.1733
9.54724	7.9155
9.44291	6.4895
9.34082	4.9678
9.24091	3.3931
9.14312	1.9663
9.04739	0.7607
8.95363	0.125
8.8618	0.0955
8.77183	0.1907
8.68368	0.2639
8.59727	0.3479
8.51257	0.4294
8.42951	0.4871
8.34807	0.5586
8.26819	0.6318
8.18981	0.7151
8.11292	0.804
8.03745	0.8721
7.96337	0.967
7.89064	1.0586
7.81924	1.1746
7.74911	1.2695
7.68023	1.3525
7.61256	1.4128
7.54608	1.4321
7.48074	1.4482
7.41653	1.4656
7.35341	1.4873
7.29136	1.4963
7.23034	1.5322
7.17033	1.6138
7.11132	1.7529
7.05327	1.8967
6.99616	2.0527
6.93996	2.1418
6.88467	2.1699
6.83024	2.158
6.77667	2.167
6.72393	2.197
6.67201	2.2881
6.62089	2.4458
6.57054	2.6435
6.52095	2.8901
6.4721	3.0752
6.42398	3.2261
6.37657	3.4646
6.32986	3.7583
6.28382	4.0627
6.23845	4.3093
6.19373	4.4338
6.14965	4.4766
6.10619	4.4189
6.06334	4.3948
6.02109	4.321
5.97942	4.133
5.93832	3.7461
5.89778	3.2839
5.8578	2.7795
5.81835	2.3274
5.77943	2.0547
5.74103	1.8325
5.70314	1.7046
5.66574	1.6487
5.62883	1.6348
5.5924	1.6619
5.55644	1.6956
5.52093	1.7375
5.48588	1.8215
5.45127	1.9492
5.41709	2.0786
5.38334	2.2205
5.35	2.331
5.31708	2.4004
5.28456	2.4736
5.25243	2.5527
5.2207	2.6521
5.18934	2.8376
5.15836	3.0583
5.12775	3.3398
5.09749	3.6719
5.0676	4.1047
5.03805	4.625
5.00884	5.1274
4.97998	5.4678
4.95144	5.7156
4.92322	5.9419
4.89533	6.1279
4.86775	6.2859
4.84048	6.3738
4.81351	6.4502
4.78684	6.5559
4.76047	6.6982
4.73439	6.8276
4.70859	6.9223
4.68306	7.0083
4.65782	7.0832
4.63284	7.1553
4.60814	7.2319
4.58369	7.2783
4.5595	7.3371
4.53557	7.3742
4.51188	7.4314
4.48845	7.4919
4.46525	7.5454
4.44229	7.5871
4.41957	7.6599
4.39708	7.7258
4.37481	7.7788
4.35277	7.8235
4.33096	7.865
4.30935	7.9248
4.28797	7.9707
4.26679	8.019
4.24583	8.0622
4.22506	8.1179
4.2045	8.1809
4.18414	8.2319
4.16398	8.291
4.14401	8.3315
4.12423	8.3862
4.10464	8.4309
4.08523	8.4939
4.066	8.5495
4.04696	8.6169
4.02809	8.6723
4.0094	8.7019
3.99088	8.7331
3.97253	8.7737
3.95435	8.7854
3.93634	8.8069
3.91848	8.8301
3.90079	8.8159
3.88326	8.7998
3.86589	8.7788
3.84867	8.76
3.8316	8.7654
3.81468	8.7824
3.79791	8.7932
3.78129	8.8362
3.76482	8.8762
3.74848	8.9214
3.73229	8.978
3.71624	9.0344
3.70032	9.0752
3.68454	9.1274
3.6689	9.1787
3.65338	9.2226
3.638	9.2793
3.62275	9.3076
3.60762	9.3515
3.59262	9.3786
3.57775	9.4419
3.56299	9.4763
3.54836	9.5136
3.53385	9.5427
3.51945	9.5852
3.50517	9.5976
3.49101	9.6594
3.47696	9.6997
3.46303	9.7448
3.4492	9.7583
3.43549	9.7851
3.42188	9.7629
3.40838	9.7778
3.39499	9.8186
3.38171	9.8491
3.36852	9.8633
3.35544	9.8835
3.34246	9.9289
3.32958	9.946
3.3168	9.9524
3.30411	9.9612
3.29153	9.9895
3.27903	9.9699
3.26664	9.9726
3.25433	9.9885
3.24212	9.9792
3.23	9.9812
3.21797	9.9802
3.20603	9.9768
3.19418	9.9804
3.18241	9.977
3.17074	9.9656
3.15914	9.9646
3.14763	9.9739
3.13621	9.9382
3.12487	9.9482
3.11361	9.9272
3.10243	9.9294
3.09133	9.9326
3.0803	9.946
3.06936	9.9323
3.0585	9.9189
3.04771	9.9221
3.037	9.9209
3.02636	9.9177
3.0158	9.9131
3.00531	9.8923
2.99489	9.8952
2.98454	9.8742
2.97427	9.8513
2.96407	9.8301
2.95393	9.803
2.94387	9.7739
2.93387	9.7744
2.92394	9.7612
2.91408	9.7429
2.90429	9.7419
2.89456	9.729
2.88489	9.7019
2.87529	9.656
2.86576	9.6474
2.85628	9.6108
2.84687	9.5578
2.83752	9.5134
2.82823	9.4719
2.81901	9.4175
2.80984	9.3921
2.80073	9.3432
2.79168	9.3371
2.78269	9.3291
2.77376	9.3662
2.76488	9.365
2.75606	9.3132
2.7473	9.3899
2.73859	9.3283
2.72994	9.4258
2.72134	9.3716
2.7128	9.4604
2.70431	9.5102
2.69587	9.4746
2.68748	9.4785
2.67915	9.4975
2.67087	9.3977
2.66264	9.445
2.65446	9.3999
2.64633	9.3579
2.63825	9.3186
2.63021	9.2134
2.62223	9.2466
2.6143	9.1574
2.60641	9.0823
2.59857	9.0752
2.59078	9.0334
2.58304	8.9292
2.57534	8.9148
2.56768	8.9026
2.56008	8.8174
2.55251	8.7729
2.54499	8.7365
2.53752	8.7292
2.53009	8.647
2.5227	8.6108
2.51536	8.5815
2.50806	8.5298
2.5008	8.4763
2.49358	8.4253
2.4864	8.4053
2.47927	8.3525
2.47218	8.279
2.46512	8.2456
2.45811	8.2158
2.45114	8.2077
2.4442	8.1633
2.43731	8.1167
2.43045	8.0866
2.42363	7.9924
2.41685	7.998
2.41011	7.9856
2.40341	7.9626
2.39674	7.8742
2.39011	7.8486
2.38352	7.8323
2.37696	7.8139
2.37044	7.7927
2.36395	7.7353
2.35751	7.6982
2.35109	7.7221
2.34471	7.7073
2.33836	7.6365
2.33205	7.6301
2.32578	7.6235
2.31953	7.6116
2.31332	7.5771
2.30714	7.6113
2.301	7.5722
2.29489	7.5337
2.28881	7.5539
2.28276	7.5315
2.27675	7.5429
2.27076	7.5278
2.26481	7.4924
2.25889	7.5078
2.253	7.4888
2.24714	7.4927
2.24131	7.466
2.23551	7.5019
2.22974	7.4663
2.224	7.458
2.21829	7.435
2.21261	7.4243
2.20696	7.4497
2.20134	7.4109
2.19574	7.4116
2.19018	7.4834
2.18464	7.4179
2.17913	7.4629
2.17365	7.4919
2.16819	7.5027
2.16277	7.5075
2.15737	7.5195
2.15199	7.499
2.14665	7.4912
2.14133	7.4902
2.13603	7.5019
2.13077	7.5014
2.12552	7.5586
2.12031	7.5581
2.11512	7.5381
2.10995	7.5928
2.10481	7.5928
2.0997	7.5635
2.09461	7.6157
2.08954	7.6479
2.0845	7.6433
2.07948	7.6255
