Name: Biotite K(Mg,Fe+2)3(Al,Fe+3)Si3O10(OH,F)2
Type: Mineral
Class: Silicates
Subclass: Phyllosilicates (Mica Group)
Particle Size: Solid
Sample No.: biotite.1
Owner: JHU
Wavelength Range: IR
Origin: Source Smithsonian NMNH 78303 Sample from Wakefield,
Description: Sample consisted of four large (5 cm x 5 cm x 3 cm)
Measurement: Bidirectional reflectance
X Units: Wavelength (micrometers)
Y Units: Reflectance (percent)
wavelength	value
25.0442	33.6484
24.3388	35.4921
23.6719	38.454
23.0407	43.247
22.4422	49.3007
21.8741	56.0003
21.334	61.1429
20.8199	59.7967
20.33	60.4906
19.8627	62.2406
19.4163	61.3416
18.9896	60.4864
18.5812	60.6493
18.19	55.4286
17.815	41.0792
17.4551	25.0969
17.1094	18.0805
16.7772	16.9614
16.4576	16.7944
16.15	16.3068
15.8537	15.4331
15.568	15.1049
15.2925	15.1753
15.0265	14.8252
14.7697	14.935
14.5214	15.111
14.2814	15.4782
14.0492	15.3999
13.8244	15.123
13.6067	14.3967
13.3957	13.9763
13.1912	14.4436
12.9929	14.7893
12.8004	15.2419
12.6135	15.9023
12.432	16.4155
12.2557	16.8076
12.0843	17.2944
11.9176	18.0285
11.7555	19.0986
11.5977	19.3764
11.444	19.7753
11.2944	21.7329
11.1487	21.83
11.0067	22.5038
10.8682	23.7621
10.7332	25.1572
10.6015	27.8451
10.473	31.7699
10.3476	35.4994
10.2251	37.0795
10.1056	40.7538
9.98873	50.2972
9.87458	60.8138
9.763	57.6234
9.65392	51.9481
9.54724	49.0472
9.44291	48.4574
9.34082	49.9208
9.24091	51.3763
9.14312	48.2836
9.04739	40.4713
8.95363	33.5727
8.8618	26.9931
8.77183	18.7985
8.68368	11.1416
8.59727	6.3584
8.51257	6.477
8.42951	7.1606
8.34807	7.968
8.26819	8.508
8.18981	8.9226
8.11292	9.4114
8.03745	9.9824
7.96337	10.4323
7.89064	10.8044
7.81924	11.1272
7.74911	11.4328
7.68023	11.7016
7.61256	11.893
7.54608	12.049
7.48074	12.1284
7.41653	12.2014
7.35341	12.2312
7.29136	12.2932
7.23034	12.5486
7.17033	12.8884
7.11132	13.3957
7.05327	13.7546
6.99616	14.0188
6.93996	14.1567
6.88467	14.2443
6.83024	14.2717
6.77667	14.4414
6.72393	14.6533
6.67201	15.0078
6.62089	15.3061
6.57054	15.538
6.52095	15.8154
6.4721	15.9262
6.42398	15.757
6.37657	15.5354
6.32986	15.0908
6.28382	14.6809
6.23845	14.3435
6.19373	14.0456
6.14965	13.8689
6.10619	13.6772
6.06334	13.6496
6.02109	13.7173
5.97942	13.7671
5.93832	13.7932
5.89778	13.9194
5.8578	14.0754
5.81835	14.0876
5.77943	14.2602
5.74103	14.435
5.70314	14.5979
5.66574	14.7692
5.62883	14.861
5.5924	14.781
5.55644	14.7097
5.52093	14.7324
5.48588	14.6865
5.45127	14.7592
5.41709	14.7707
5.38334	14.8093
5.35	14.8457
5.31708	14.9531
5.28456	15.0693
5.25243	15.1862
5.2207	15.3252
5.18934	15.4575
5.15836	15.6106
5.12775	15.7426
5.09749	15.8115
5.0676	15.9148
5.03805	15.9699
5.00884	15.9931
4.97998	15.9902
4.95144	15.9326
4.92322	15.8674
4.89533	15.8203
4.86775	15.8147
4.84048	15.7963
4.81351	15.7924
4.78684	15.8037
4.76047	15.8291
4.73439	15.8442
4.70859	15.8261
4.68306	15.8059
4.65782	15.8361
4.63284	15.9262
4.60814	16.0241
4.58369	16.1333
4.5595	16.1982
4.53557	16.2763
4.51188	16.3344
4.48845	16.4228
4.46525	16.4814
4.44229	16.529
4.41957	16.5791
4.39708	16.6401
4.37481	16.7085
4.35277	16.77
4.33096	16.8198
4.30935	16.8708
4.28797	16.9213
4.26679	16.9731
4.24583	16.9821
4.22506	16.9777
4.2045	16.9538
4.18414	16.9094
4.16398	16.8461
4.14401	16.737
4.12423	16.6452
4.10464	16.5302
4.08523	16.4289
4.066	16.3139
4.04696	16.1999
4.02809	16.0888
4.0094	16.039
3.99088	16.0253
3.97253	16.0888
3.95435	16.1943
3.93634	16.3203
3.91848	16.4545
3.90079	16.604
3.88326	16.7226
3.86589	16.8049
3.84867	16.8896
3.8316	16.9585
3.81468	17.0083
3.79791	17.0307
3.78129	17.041
3.76482	17.0063
3.74848	16.9228
3.73229	16.8447
3.71624	16.7849
3.70032	16.7065
3.68454	16.6184
3.6689	16.5366
3.65338	16.5092
3.638	16.5166
3.62275	16.4838
3.60762	16.4819
3.59262	16.4956
3.57775	16.4992
3.56299	16.5039
3.54836	16.5029
3.53385	16.4736
3.51945	16.4604
3.50517	16.458
3.49101	16.4912
3.47696	16.4743
3.46303	16.4458
3.4492	16.3911
3.43549	16.3342
3.42188	16.3086
3.40838	16.3117
3.39499	16.258
3.38171	16.2482
3.36852	16.3237
3.35544	16.3264
3.34246	16.3767
3.32958	16.414
3.3168	16.4509
3.30411	16.5273
3.29153	16.5432
3.27903	16.5795
3.26664	16.5927
3.25433	16.5771
3.24212	16.582
3.23	16.5588
3.21797	16.5529
3.20603	16.5219
3.19418	16.4961
3.18241	16.4585
3.17074	16.4338
3.15914	16.3823
3.14763	16.3361
3.13621	16.2851
3.12487	16.2544
3.11361	16.2324
3.10243	16.2148
3.09133	16.1945
3.0803	16.1806
3.06936	16.1584
3.0585	16.1154
3.04771	16.1066
3.037	16.0422
3.02636	16.0048
3.0158	15.9179
3.00531	15.8486
2.99489	15.799
2.98454	15.7746
2.97427	15.6943
2.96407	15.6347
2.95393	15.5666
2.94387	15.5439
2.93387	15.5048
2.92394	15.4709
2.91408	15.4309
2.90429	15.4126
2.89456	15.427
2.88489	15.4336
2.87529	15.3596
2.86576	15.3691
2.85628	15.3557
2.84687	15.3173
2.83752	15.2724
2.82823	15.2119
2.81901	15.144
2.80984	15.0354
2.80073	14.9541
2.79168	14.8271
2.78269	14.7089
2.77376	14.718
2.76488	14.6015
2.75606	14.5615
2.7473	14.7363
2.73859	14.6035
2.72994	14.5327
2.72134	14.4057
2.7128	14.2788
2.70431	14.0185
2.69587	14.0063
2.68748	14.6635
2.67915	15.206
2.67087	15.2475
2.66264	15.2392
2.65446	15.2099
2.64633	15.1562
2.63825	15.1333
2.63021	15.0581
2.62223	15.061
2.6143	15.0263
2.60641	14.8955
2.59857	14.8989
2.59078	14.8271
2.58304	14.7529
2.57534	14.7016
2.56768	14.645
2.56008	14.6123
2.55251	14.5322
2.54499	14.5097
2.53752	14.4497
2.53009	14.4087
2.5227	14.3672
2.51536	14.3403
2.50806	14.3359
2.5008	14.3076
2.49358	14.2519
2.4864	14.2617
2.47927	14.1816
2.47218	14.1367
2.46512	14.1054
2.45811	14.083
2.45114	14.0669
2.4442	14.0058
2.43731	13.9961
2.43045	13.9531
2.42363	13.9399
2.41685	13.8955
2.41011	13.8789
2.40341	13.8437
2.39674	13.7871
2.39011	13.75
2.38352	13.7719
2.37696	13.7876
2.37044	13.7778
2.36395	13.8261
2.35751	13.7705
2.35109	13.6377
2.34471	13.6152
2.33836	13.5976
2.33205	13.5283
2.32578	13.5429
2.31953	13.5586
2.31332	13.5214
2.30714	13.58
2.301	13.6289
2.29489	13.8506
2.28881	13.9951
2.28276	14.0625
2.27675	14.1923
2.27076	14.2597
2.26481	14.3769
2.25889	14.5576
2.253	14.5839
2.24714	14.6767
2.24131	14.7978
2.23551	14.9668
2.22974	14.9736
2.224	15.0351
2.21829	15.082
2.21261	15.0839
2.20696	15.0019
2.20134	15.0244
2.19574	15.0517
2.19018	15.0996
2.18464	15.0683
2.17913	15.0507
2.17365	15.1601
2.16819	15.125
2.16277	15.1416
2.15737	15.1953
2.15199	15.0918
2.14665	15.1181
2.14133	15.2197
2.13603	15.247
2.13077	15.2968
2.12552	15.2714
2.12031	15.3281
2.11512	15.3007
2.10995	15.3759
2.10481	15.4892
2.0997	15.5
2.09461	15.5791
2.08954	15.5908
2.0845	15.6445
2.07948	15.6025
