Name: Allende1
Type: Stony Meteorites
Class: Carbonaceous Chondrite
Subclass: CV3
Particle Size: 0-75 micrometers
Sample No.: Allende1
Owner: JHU
Origin: Meteorite seen to fall in Mexico in 1969.  Smithsonian sample No. USNM
Description: None.
Measurement: Bidirectional reflectance
X Units: Wavelength (micrometers)
Y Units: Reflectance (percent)
wavelength	value
25.044	0.4102
24.339	0.4193
23.672	0.3893
23.041	0.384
22.442	0.3652
21.874	0.4207
21.334	0.4171
20.82	0.4233
20.33	0.3994
19.863	0.407
19.416	0.4326
18.99	0.4211
18.581	0.3801
18.19	0.342
17.815	0.3431
17.455	0.3494
17.109	0.3256
16.777	0.2993
16.458	0.2997
16.15	0.3254
15.854	0.3716
15.568	0.4159
15.292	0.4664
15.027	0.4855
14.77	0.5192
14.521	0.5713
14.281	0.6205
14.049	0.6724
13.824	0.7379
13.607	0.8103
13.396	0.9121
13.191	0.9961
12.993	1.0707
12.8	1.1205
12.614	1.1193
12.432	1.0707
12.256	0.9182
12.084	0.6528
11.918	0.5095
11.755	0.553
11.598	0.5674
11.444	0.6176
11.294	0.6187
11.149	0.6034
11.007	0.5891
10.868	0.5934
10.733	0.593
10.602	0.5312
10.473	0.478
10.348	0.4653
10.225	0.4625
10.106	0.4425
9.9887	0.4319
9.8746	0.4403
9.763	0.4724
9.6539	0.521
9.5472	0.5643
9.4429	0.5553
9.3408	0.5222
9.2409	0.5012
9.1431	0.5256
9.0474	0.5889
8.9536	0.6837
8.8618	0.7704
8.7718	0.8297
8.6837	0.8699
8.5973	0.9192
8.5126	0.9656
8.4295	1.0098
8.3481	1.0583
8.2682	1.0992
8.1898	1.1387
8.1129	1.1787
8.0374	1.2109
7.9634	1.2399
7.8906	1.2677
7.8192	1.2935
7.7491	1.3171
7.6802	1.3341
7.6126	1.3506
7.5461	1.3733
7.4807	1.3977
7.4165	1.4193
7.3534	1.4353
7.2914	1.452
7.2303	1.464
7.1703	1.4757
7.1113	1.4849
7.0533	1.496
6.9962	1.5172
6.94	1.528
6.8847	1.5364
6.8302	1.5405
6.7767	1.5458
6.7239	1.5503
6.672	1.5535
6.6209	1.5586
6.5705	1.5663
6.5209	1.5754
6.4721	1.5818
6.424	1.5868
6.3766	1.5909
6.3299	1.595
6.2838	1.6052
6.2385	1.6227
6.1937	1.6348
6.1496	1.6327
6.1062	1.6194
6.0633	1.5936
6.0211	1.5821
5.9794	1.5898
5.9383	1.5995
5.8978	1.6072
5.8578	1.6166
5.8184	1.6289
5.7794	1.6227
5.741	1.6033
5.7031	1.5807
5.6657	1.566
5.6288	1.579
5.5924	1.6019
5.5564	1.6155
5.5209	1.6232
5.4859	1.6296
5.4513	1.6378
5.4171	1.6471
5.3833	1.6602
5.35	1.6686
5.3171	1.6742
5.2846	1.683
5.2524	1.6896
5.2207	1.6926
5.1893	1.7015
5.1584	1.7081
5.1277	1.7114
5.0975	1.7144
5.0676	1.7148
5.038	1.7224
5.0088	1.7242
4.98	1.728
4.9514	1.7347
4.9232	1.7391
4.8953	1.746
4.8678	1.7535
4.8405	1.7571
4.8135	1.7587
4.7868	1.7646
4.7605	1.7681
4.7344	1.7721
4.7086	1.7725
4.6831	1.7769
4.6578	1.7797
4.6328	1.7842
4.6081	1.7902
4.5837	1.7915
4.5595	1.798
4.5356	1.8004
4.5119	1.801
4.4884	1.8048
4.4652	1.8069
4.4423	1.8076
4.4196	1.8092
4.3971	1.811
4.3748	1.8085
4.3528	1.805
4.331	1.8082
4.3094	1.8058
4.288	1.8024
4.2668	1.8052
4.2458	1.806
4.2251	1.807
4.2045	1.8079
4.1841	1.8097
4.164	1.8068
4.144	1.8085
4.1242	1.8124
4.1046	1.8096
4.0852	1.8105
4.066	1.8129
4.047	1.8132
4.0281	1.8165
4.0094	1.8136
3.9909	1.8152
3.9725	1.8159
3.9544	1.817
3.9363	1.8135
3.9185	1.8138
3.9008	1.8142
3.8833	1.8092
3.8659	1.8079
3.8487	1.8065
3.8316	1.802
3.8147	1.8026
3.7979	1.7982
3.7813	1.7971
3.7648	1.7942
3.7485	1.7958
3.7323	1.7974
3.7162	1.7927
3.7003	1.7883
3.6845	1.7887
3.6689	1.7878
3.6534	1.7881
3.638	1.7861
3.6227	1.7864
3.6076	1.7866
3.5926	1.7838
3.5777	1.7792
3.563	1.7816
3.5484	1.7755
3.5338	1.7731
3.5195	1.7704
3.5052	1.7634
3.491	1.7593
3.477	1.7616
3.463	1.7582
3.4492	1.7519
3.4355	1.744
3.4219	1.7384
3.4084	1.739
3.395	1.7412
3.3817	1.7366
3.3685	1.7358
3.3554	1.7344
3.3425	1.7288
3.3296	1.7307
3.3168	1.7261
3.3041	1.7253
3.2915	1.7194
3.279	1.7186
3.2666	1.7187
3.2543	1.7181
3.2421	1.717
3.23	1.7102
3.218	1.7061
3.206	1.7079
3.1942	1.6974
3.1824	1.6953
3.1707	1.6934
3.1591	1.6893
3.1476	1.6859
3.1362	1.6763
3.1249	1.6752
3.1136	1.6691
3.1024	1.6683
3.0913	1.6642
3.0803	1.6611
3.0694	1.6576
3.0585	1.6521
3.0477	1.6542
3.037	1.6467
3.0264	1.6426
3.0158	1.6443
3.0053	1.6387
2.9949	1.6318
2.9845	1.6287
2.9743	1.626
2.9641	1.6245
2.9539	1.6212
2.9439	1.62
2.9339	1.6119
2.9239	1.6121
2.9141	1.6008
2.9043	1.6024
2.8946	1.6024
2.8849	1.6
2.8753	1.5981
2.8658	1.5902
2.8563	1.5881
2.8469	1.5905
2.8375	1.5867
2.8282	1.5809
2.819	1.5809
2.8098	1.5814
2.8007	1.582
2.7917	1.58
2.7827	1.5829
2.7738	1.5789
2.7649	1.5767
2.7561	1.5786
2.7473	1.5699
2.7386	1.5763
2.7299	1.5825
2.7213	1.578
2.7128	1.5829
2.7043	1.5835
2.6959	1.5796
2.6875	1.5771
2.6791	1.574
2.6709	1.5719
2.6626	1.5724
2.6545	1.5731
2.6463	1.5676
2.6382	1.567
2.6302	1.5674
2.6222	1.5574
2.6143	1.5557
2.6064	1.5581
2.5986	1.5524
2.5908	1.5424
2.583	1.5452
2.5753	1.5373
2.5677	1.5485
2.5601	1.5287
2.5525	1.5228
2.545	1.5271
2.5375	1.5278
2.5301	1.5343
2.5227	1.5173
2.5154	1.5084
2.5081	1.5204
2.5008	1.5154
2.4936	1.5034
2.4864	1.5035
2.4793	1.4984
2.4722	1.4889
2.4651	1.4906
2.4581	1.4999
2.4511	1.4908
2.4442	1.4834
2.4373	1.4823
2.4305	1.4723
2.4236	1.4709
2.4169	1.4652
2.4101	1.4725
2.4034	1.4691
2.3967	1.457
2.3901	1.463
2.3835	1.4639
2.377	1.4568
2.3704	1.4452
2.364	1.4447
2.3575	1.4469
2.3511	1.4446
2.3447	1.4287
2.3384	1.4338
2.3321	1.4404
2.3258	1.4314
2.3195	1.423
2.3133	1.4366
2.3071	1.4249
2.301	1.4296
2.2949	1.4222
2.2888	1.423
2.2828	1.4286
2.2767	1.4387
2.2708	1.4172
2.2648	1.4227
2.2589	1.4265
2.253	1.4191
2.2471	1.4149
2.2413	1.3989
2.2355	1.4084
2.2297	1.3942
2.224	1.3983
2.2183	1.4038
2.2126	1.4144
2.207	1.4019
2.2013	1.4076
2.1957	1.4122
2.1902	1.4005
2.1846	1.3901
2.1791	1.396
2.1736	1.3986
2.1682	1.4091
2.1628	1.3883
2.1574	1.381
2.152	1.3925
2.1466	1.4073
2.1413	1.3876
2.136	1.3851
2.1308	1.394
2.1255	1.3895
2.1203	1.3787
2.1151	1.3945
2.11	1.3827
2.1048	1.3701
2.0997	1.358
2.0946	1.3673
2.0895	1.3733
2.0845	1.3807
2.0795	1.3695
