Name: Quartz SiO2
Type: Mineral
Class: Silicates
Subclass: Tectosilicates (Silica Group)
Particle Size: Fine  (Less than 2  Micrometers)
Sample No.: quartz.1
Owner: JHU
Wavelength Range: IR
Origin: Brazil, via Bruce Hemingway, USGS
Description: The hand sample appeared entirely pure, being a clear
Measurement: Transmission
X Units: Wavelength (micrometers)
Y Units: Transmittance (percent)
wavelength	value
25.0442	50.5936
24.3388	74.2029
23.6719	71.6483
23.0407	67.1971
22.4422	57.66
21.8741	35.2108
21.334	23.8242
20.8199	33.164
20.33	51.2538
19.8627	53.6219
19.4163	41.8602
18.9896	55.6366
18.5812	73.3572
18.19	79.5633
17.815	81.4265
17.4551	82.5135
17.1094	81.8533
16.7772	80.4734
16.4576	82.3201
16.15	82.7517
15.8537	83.0838
15.568	83.3523
15.2925	82.7517
15.0265	82.9392
14.7697	81.1014
14.5214	78.3055
14.2814	77.617
14.0492	82.24
13.8244	82.9842
13.6067	82.3924
13.3957	80.9236
13.1912	80.0135
12.9929	73.8162
12.8004	50.0961
12.6135	53.8617
12.432	49.3207
12.2557	74.3514
12.0843	79.9612
11.9176	81.951
11.7555	83.0369
11.5977	82.5193
11.444	81.1892
11.2944	80.1463
11.1487	78.7381
11.0067	78.1375
10.8682	76.8123
10.7332	74.7952
10.6015	72.3494
10.473	68.2943
10.3476	65.3367
10.2251	63.7044
10.1056	60.2166
9.98873	55.659
9.87458	49.9169
9.763	43.4745
9.65392	36.1869
9.54724	27.9648
9.44291	17.2778
9.34082	9.0898
9.24091	3.1636
9.14312	1.9228
9.04739	2.9434
8.95363	5.5381
8.8618	9.3647
8.77183	12.5796
8.68368	15.3003
8.59727	17.2924
8.51257	18.5253
8.42951	26.6425
8.34807	36.495
8.26819	46.1769
8.18981	56.086
8.11292	64.0399
8.03745	70.1231
7.96337	75.2474
7.89064	78.7071
7.81924	81.1368
7.74911	83.4881
7.68023	85.2146
7.61256	86.4363
7.54608	87.4939
7.48074	88.0779
7.41653	88.655
7.35341	89.0361
7.29136	89.3486
7.23034	89.6311
7.17033	89.7383
7.11132	89.9461
7.05327	90.3399
6.99616	90.8118
6.93996	91.2673
6.88467	91.2937
6.83024	90.9785
6.77667	91.0147
6.72393	91.2852
6.67201	91.5847
6.62089	91.6006
6.57054	91.6126
6.52095	91.791
6.4721	92.1777
6.42398	92.2576
6.37657	91.8789
6.32986	91.4483
6.28382	90.6289
6.23845	89.5508
6.19373	88.2034
6.14965	87.7715
6.10619	87.7649
6.06334	88.6199
6.02109	90.5271
5.97942	91.6299
5.93832	91.5527
5.89778	91.9031
5.8578	92.3484
5.81835	92.822
5.77943	93.21
5.74103	93.4627
5.70314	93.679
5.66574	93.6072
5.62883	93.3965
5.5924	93.2249
5.55644	93.2861
5.52093	93.4685
5.48588	93.5625
5.45127	93.76
5.41709	93.5647
5.38334	92.9109
5.35	92.4802
5.31708	92.5869
5.28456	92.8796
5.25243	93.3689
5.2207	93.7693
5.18934	93.9348
5.15836	93.926
5.12775	93.9275
5.09749	93.9168
5.0676	93.7666
5.03805	93.7451
5.00884	93.7439
4.97998	93.8621
4.95144	94.1052
4.92322	94.2354
4.89533	94.45
4.86775	94.5505
4.84048	94.6248
4.81351	94.7683
4.78684	94.8225
4.76047	94.8459
4.73439	94.8806
4.70859	94.8787
4.68306	94.9172
4.65782	94.9602
4.63284	95.0559
4.60814	95.2083
4.58369	95.1589
4.5595	95.0974
4.53557	95.0872
4.51188	95.093
4.48845	95.0393
4.46525	95.0217
4.44229	95.0242
4.41957	95.0837
4.39708	95.0901
4.37481	95.1492
4.35277	95.1179
4.33096	95.1506
4.30935	95.135
4.28797	95.1467
4.26679	95.0984
4.24583	95.2141
4.22506	95.1658
4.2045	95.1921
4.18414	95.2034
4.16398	95.1638
4.14401	95.2302
4.12423	95.1736
4.10464	95.072
4.08523	95.0867
4.066	95.1375
4.04696	95.1292
4.02809	95.0251
4.0094	95.075
3.99088	94.9573
3.97253	94.8914
3.95435	94.9827
3.93634	94.9832
3.91848	94.9885
3.90079	94.9959
3.88326	94.9392
3.86589	94.9397
3.84867	94.9104
3.8316	94.9128
3.81468	94.8709
3.79791	94.8772
3.78129	94.8484
3.76482	94.7625
3.74848	94.7195
3.73229	94.7341
3.71624	94.738
3.70032	94.5955
3.68454	94.5627
3.6689	94.4783
3.65338	94.4285
3.638	94.342
3.62275	94.2761
3.60762	94.1638
3.59262	94.1389
3.57775	94.1013
3.56299	93.9827
3.54836	93.8054
3.53385	93.655
3.51945	93.3191
3.50517	92.697
3.49101	92.7605
3.47696	92.7293
3.46303	92.6702
3.4492	92.3928
3.43549	91.9509
3.42188	91.1775
3.40838	91.1521
3.39499	91.5994
3.38171	91.4705
3.36852	91.5906
3.35544	91.5588
3.34246	91.551
3.32958	91.3494
3.3168	91.1541
3.30411	91.1604
3.29153	90.8923
3.27903	90.4905
3.26664	90.2341
3.25433	89.9924
3.24212	89.6799
3.23	89.3435
3.21797	89.0213
3.20603	88.6746
3.19418	88.2581
3.18241	87.9549
3.17074	87.7166
3.15914	87.2737
3.14763	86.9256
3.13621	86.4822
3.12487	86.0984
3.11361	85.7869
3.10243	85.2801
3.09133	84.8269
3.0803	84.4431
3.06936	84.074
3.0585	83.7195
3.04771	83.3445
3.037	83.0291
3.02636	82.5769
3.0158	81.9998
3.00531	81.3621
2.99489	80.5623
2.98454	79.6209
2.97427	78.49
2.96407	77.2596
2.95393	76.2908
2.94387	75.6033
2.93387	75.2664
2.92394	74.8787
2.91408	74.8367
2.90429	75.0525
2.89456	75.657
2.88489	76.2898
2.87529	76.9041
2.86576	77.6922
2.85628	78.6228
2.84687	79.3025
2.83752	80.1141
2.82823	80.9851
2.81901	81.9383
2.80984	82.7849
2.80073	83.6267
2.79168	84.822
2.78269	85.7986
2.77376	86.99
2.76488	88.1892
2.75606	89.1609
2.7473	90.2302
2.73859	91.2664
2.72994	92.0701
2.72134	92.824
2.7128	93.239
2.70431	93.6521
2.69587	94.2625
2.68748	94.4617
2.67915	94.6755
2.67087	94.6882
2.66264	94.7195
2.65446	94.7351
2.64633	94.8093
2.63825	94.9783
2.63021	94.8123
2.62223	94.8845
2.6143	94.8826
2.60641	94.8709
2.59857	94.9421
2.59078	94.8406
2.58304	94.9851
2.57534	94.658
2.56768	94.8669
2.56008	94.9021
2.55251	94.8162
2.54499	94.7302
2.53752	95.0095
2.53009	94.9919
2.5227	94.6736
2.51536	94.9509
2.50806	94.9802
2.5008	94.9861
2.49358	94.8552
2.4864	94.99
2.47927	95.0466
2.47218	94.906
2.46512	94.9724
2.45811	95.1345
2.45114	94.9841
2.4442	94.8318
2.43731	95.033
2.43045	94.8591
2.42363	95.0505
2.41685	95.0662
2.41011	95.0388
2.40341	94.9705
2.39674	95.0662
2.39011	95.0251
2.38352	94.9021
2.37696	95.0642
2.37044	95.031
2.36395	94.9216
2.35751	94.7126
2.35109	94.9626
2.34471	94.9939
2.33836	94.7185
2.33205	94.9001
2.32578	94.9841
2.31953	94.9392
2.31332	94.947
2.30714	94.7576
2.301	95.0251
2.29489	94.738
2.28881	95.0115
2.28276	94.7966
2.27675	94.9236
2.27076	94.7048
2.26481	94.8376
2.25889	94.7068
2.253	95.0408
2.24714	94.6599
2.24131	94.7068
2.23551	94.533
2.22974	95.0623
2.224	94.4334
2.21829	94.9138
2.21261	94.6169
2.20696	94.8923
2.20134	94.5642
2.19574	94.5017
2.19018	94.6033
2.18464	94.5251
2.17913	94.3376
2.17365	94.7771
2.16819	94.6345
2.16277	94.6169
2.15737	94.3748
2.15199	94.5798
2.14665	94.1404
2.14133	94.4607
2.13603	94.2302
2.13077	94.6091
2.12552	94.3044
2.12031	94.3748
2.11512	94.5388
2.10995	94.2693
2.10481	94.4998
2.0997	94.3826
2.09461	94.5505
2.08954	94.2771
2.0845	94.3865
2.07948	94.5154
