Name: Smectite Na0.33Fe2+3(Si,Al)4 O10.3H2O
Type: Mineral
Class: Silicates
Subclass: Phyllosilicates (Sheet silicates); Smectite Group
Particle Size: Fine  (Less than 2  Micrometers)
Sample No.: smectite.1
Owner: JHU
Wavelength Range: IR
Origin: Grant Co., Washington, USA via the Clay Mineral Society
Description: Described by CMS as a ferruginous smectite, the sample
Measurement: Transmission
X Units: Wavelength (micrometers)
Y Units: Transmittance (percent)
wavelength	value
25.0442	62.2694
24.3388	54.7342
23.6719	47.6268
23.0407	47.078
22.4422	47.8436
21.8741	48.0038
21.334	51.5565
20.8199	55.1053
20.33	49.8368
19.8627	50.1581
19.4163	51.1883
18.9896	55.1971
18.5812	59.9178
18.19	64.3963
17.815	68.2362
17.4551	71.7518
17.1094	75.2674
16.7772	77.6609
16.4576	79.8543
16.15	81.9451
15.8537	84.0779
15.568	85.4221
15.2925	85.949
15.0265	85.6038
14.7697	84.6897
14.5214	85.8123
14.2814	87.7039
14.0492	89.6062
13.8244	91.1912
13.6067	91.2009
13.3957	90.2849
13.1912	88.6018
12.9929	87.3845
12.8004	85.9788
12.6135	85.5926
12.432	84.1619
12.2557	80.0926
12.0843	80.4656
11.9176	80.7732
11.7555	78.3123
11.5977	74.5023
11.444	71.6414
11.2944	74.0784
11.1487	73.9666
11.0067	70.18
10.8682	66.4193
10.7332	63.5355
10.6015	60.2547
10.473	55.9542
10.3476	51.1085
10.2251	46.2404
10.1056	41.4931
9.98873	37.6134
9.87458	35.2443
9.763	34.3495
9.65392	34.8195
9.54724	37.2912
9.44291	41.6593
9.34082	46.89
9.24091	51.8368
9.14312	55.2049
9.04739	57.1917
8.95363	59.0018
8.8618	61.1297
8.77183	63.6698
8.68368	66.578
8.59727	69.5733
8.51257	72.126
8.42951	74.9666
8.34807	77.7103
8.26819	79.9432
8.18981	81.6641
8.11292	83.1409
8.03745	84.3653
7.96337	85.5489
7.89064	86.593
7.81924	87.2971
7.74911	88.0286
7.68023	88.6243
7.61256	89.2532
7.54608	89.9277
7.48074	90.4187
7.41653	90.8255
7.35341	91.2825
7.29136	91.6824
7.23034	91.9807
7.17033	92.5684
7.11132	92.8396
7.05327	92.8301
6.99616	93.1765
6.93996	93.6934
6.88467	93.9414
6.83024	94.0105
6.77667	94.2195
6.72393	94.5002
6.67201	94.8259
6.62089	95.1296
6.57054	95.4172
6.52095	95.541
6.4721	95.7302
6.42398	95.9365
6.37657	95.9482
6.32986	95.8801
6.28382	95.5652
6.23845	94.594
6.19373	92.3535
6.14965	90.2676
6.10619	90.5144
6.06334	92.2813
6.02109	94.3477
5.97942	95.915
5.93832	95.9221
5.89778	95.9229
5.8578	96.0723
5.81835	96.4119
5.77943	96.6279
5.74103	96.7637
5.70314	96.8054
5.66574	96.8533
5.62883	96.9609
5.5924	96.9895
5.55644	97.001
5.52093	97.0303
5.48588	97.0771
5.45127	97.1199
5.41709	97.2468
5.38334	97.2732
5.35	97.4639
5.31708	97.5476
5.28456	97.6641
5.25243	97.7263
5.2207	97.8113
5.18934	97.8645
5.15836	97.9717
5.12775	98.0037
5.09749	98.0945
5.0676	98.1543
5.03805	98.2273
5.00884	98.2822
4.97998	98.3611
4.95144	98.4072
4.92322	98.3972
4.89533	98.417
4.86775	98.4668
4.84048	98.4929
4.81351	98.5049
4.78684	98.5173
4.76047	98.4971
4.73439	98.5476
4.70859	98.5498
4.68306	98.5408
4.65782	98.5593
4.63284	98.5964
4.60814	98.7412
4.58369	98.6025
4.5595	98.5964
4.53557	98.5752
4.51188	98.5967
4.48845	98.5681
4.46525	98.5681
4.44229	98.6445
4.41957	98.6433
4.39708	98.6484
4.37481	98.6855
4.35277	98.654
4.33096	98.6477
4.30935	98.6943
4.28797	98.7363
4.26679	98.7234
4.24583	98.7695
4.22506	98.7725
4.2045	98.7117
4.18414	98.751
4.16398	98.7266
4.14401	98.6738
4.12423	98.6838
4.10464	98.7297
4.08523	98.6912
4.066	98.654
4.04696	98.6687
4.02809	98.6457
4.0094	98.6404
3.99088	98.5686
3.97253	98.5496
3.95435	98.5657
3.93634	98.5471
3.91848	98.5369
3.90079	98.5442
3.88326	98.512
3.86589	98.4255
3.84867	98.4582
3.8316	98.4089
3.81468	98.387
3.79791	98.3425
3.78129	98.3196
3.76482	98.2659
3.74848	98.2327
3.73229	98.196
3.71624	98.1155
3.70032	98.0622
3.68454	98.0261
3.6689	97.9836
3.65338	97.8962
3.638	97.864
3.62275	97.7839
3.60762	97.7439
3.59262	97.7229
3.57775	97.6755
3.56299	97.5784
3.54836	97.5276
3.53385	97.4685
3.51945	97.3484
3.50517	97.342
3.49101	97.2195
3.47696	97.1355
3.46303	97.074
3.4492	97.0139
3.43549	96.9285
3.42188	96.8767
3.40838	96.6316
3.39499	96.5803
3.38171	96.5222
3.36852	96.491
3.35544	96.2546
3.34246	96.1169
3.32958	95.9333
3.3168	95.7834
3.30411	95.6443
3.29153	95.5486
3.27903	95.2971
3.26664	95.0564
3.25433	94.8445
3.24212	94.6873
3.23	94.3962
3.21797	94.1472
3.20603	93.822
3.19418	93.4236
3.18241	93.0271
3.17074	92.6052
3.15914	92.1404
3.14763	91.6838
3.13621	91.2463
3.12487	90.6819
3.11361	90.2029
3.10243	89.6995
3.09133	89.3396
3.0803	88.9827
3.06936	88.7346
3.0585	88.3357
3.04771	87.8162
3.037	87.2088
3.02636	86.5427
3.0158	85.7952
3.00531	85.0408
2.99489	84.4143
2.98454	83.7405
2.97427	83.0413
2.96407	82.5315
2.95393	82.0603
2.94387	81.8123
2.93387	81.6863
2.92394	81.6941
2.91408	81.7517
2.90429	81.9695
2.89456	82.24
2.88489	82.5603
2.87529	82.7361
2.86576	82.948
2.85628	83.1678
2.84687	83.074
2.83752	82.2596
2.82823	80.4695
2.81901	78.7185
2.80984	77.2703
2.80073	76.3553
2.79168	76.6648
2.78269	77.7869
2.77376	78.9314
2.76488	80.2
2.75606	81.9031
2.7473	84.2205
2.73859	86.656
2.72994	88.8748
2.72134	90.8914
2.7128	92.2859
2.70431	93.3445
2.69587	93.9607
2.68748	94.3748
2.67915	94.4734
2.67087	94.5359
2.66264	94.5398
2.65446	94.4529
2.64633	94.4763
2.63825	94.4255
2.63021	94.408
2.62223	94.364
2.6143	94.4968
2.60641	94.4392
2.59857	94.3044
2.59078	94.2966
2.58304	94.3982
2.57534	94.2166
2.56768	94.1453
2.56008	94.2966
2.55251	94.1287
2.54499	93.9529
2.53752	93.9929
2.53009	94.0115
2.5227	93.6853
2.51536	93.9373
2.50806	93.9226
2.5008	93.7537
2.49358	93.6794
2.4864	93.5867
2.47927	93.5896
2.47218	93.571
2.46512	93.5671
2.45811	93.488
2.45114	93.3132
2.4442	93.3025
2.43731	93.2732
2.43045	93.2302
2.42363	93.3318
2.41685	93.283
2.41011	93.3142
2.40341	93.0701
2.39674	92.8923
2.39011	92.6755
2.38352	92.7595
2.37696	92.8982
2.37044	93.1306
2.36395	92.9744
2.35751	92.7185
2.35109	92.8845
2.34471	92.5545
2.33836	92.5584
2.33205	92.3943
2.32578	92.6248
2.31953	92.7654
2.31332	92.3533
2.30714	92.3611
2.301	92.4216
2.29489	92.2966
2.28881	92.0466
2.28276	92.072
2.27675	92.2752
2.27076	92.363
2.26481	92.3845
2.25889	92.0955
2.253	92.0115
2.24714	92.0115
2.24131	92.0017
2.23551	92.1013
2.22974	92.197
2.224	91.8767
2.21829	91.9216
2.21261	91.9705
2.20696	91.7341
2.20134	91.8123
2.19574	91.742
2.19018	91.8201
2.18464	91.7185
2.17913	91.7205
2.17365	91.8591
2.16819	91.8689
2.16277	91.908
2.15737	91.7029
2.15199	91.4236
2.14665	91.4314
2.14133	91.5623
2.13603	91.5505
2.13077	91.7283
2.12552	91.4607
2.12031	91.5955
2.11512	91.4646
2.10995	91.3943
2.10481	91.3513
2.0997	91.6951
2.09461	91.8298
2.08954	91.3455
2.0845	91.5779
2.07948	91.7673
