Name: Muscovite KAl2(Si3Al)O10(OH,F)2
Type: Mineral
Class: Silicates
Subclass: Phyllosilicates (Sheet Silicates); (MicaGroup)
Particle Size: Fine  (Less than 2  Micrometers)
Sample No.: muscov.1
Owner: JHU
Wavelength Range: IR
Origin: Methuen Township, Ontario via Bruce Hemingway, USGS
Description: The sample consisted of clear, transparent "books" of
Measurement: Transmission
X Units: Wavelength (micrometers)
Y Units: Transmittance (percent)
wavelength	value
25.0442	29.4765
24.3388	24.7382
23.6719	28.5273
23.0407	28.4628
22.4422	25.3847
21.8741	18.5546
21.334	11.205
20.8199	8.5
20.33	15.8769
19.8627	21.1767
19.4163	18.6494
18.9896	11.8681
18.5812	10.3564
18.19	14.083
17.815	19.0664
17.4551	27.0702
17.1094	33.8886
16.7772	42.6991
16.4576	49.7626
16.15	53.4471
15.8537	56.5477
15.568	61.6561
15.2925	66.1942
15.0265	67.2694
14.7697	64.2791
14.5214	61.4461
14.2814	61.7323
14.0492	61.6468
13.8244	57.6292
13.6067	54.327
13.3957	47.5975
13.1912	49.5018
12.9929	60.7186
12.8004	66.5257
12.6135	63.9705
12.432	60.9442
12.2557	63.7284
12.0843	59.0277
11.9176	65.9417
11.7555	66.0086
11.5977	58.4178
11.444	49.0668
11.2944	42.7445
11.1487	37.0331
11.0067	29.3891
10.8682	24.8613
10.7332	22.2978
10.6015	22.7465
10.473	21.9443
10.3476	14.2758
10.2251	7.6528
10.1056	4.9756
9.98873	4.4458
9.87458	4.0161
9.763	3.7881
9.65392	4.5635
9.54724	7.8017
9.44291	9.2876
9.34082	10.3857
9.24091	14.2607
9.14312	18.9604
9.04739	22.5219
8.95363	25.6747
8.8618	30.4677
8.77183	36.2958
8.68368	41.6278
8.59727	46.3339
8.51257	50.7501
8.42951	54.4776
8.34807	57.8946
8.26819	61.1036
8.18981	63.7459
8.11292	65.9727
8.03745	68.1737
7.96337	69.8323
7.89064	71.4764
7.81924	72.9629
7.74911	74.1727
7.68023	75.471
7.61256	76.4493
7.54608	77.4952
7.48074	78.3799
7.41653	79.094
7.35341	79.8748
7.29136	80.2195
7.23034	79.3887
7.17033	81.5838
7.11132	82.1614
7.05327	82.8855
6.99616	83.4554
6.93996	83.9903
6.88467	84.532
6.83024	84.9815
6.77667	85.7598
6.72393	86.5349
6.67201	86.9773
6.62089	87.3018
6.57054	87.8235
6.52095	87.8311
6.4721	88.0799
6.42398	88.2676
6.37657	88.2217
6.32986	88.1424
6.28382	87.9004
6.23845	87.6621
6.19373	87.2569
6.14965	86.3516
6.10619	86.0469
6.06334	85.9519
6.02109	86.3958
5.97942	87.2976
5.93832	88.2158
5.89778	88.9265
5.8578	89.3516
5.81835	90.0169
5.77943	90.1472
5.74103	90.4382
5.70314	90.8106
5.66574	91.0459
5.62883	91.2051
5.5924	91.3086
5.55644	91.418
5.52093	91.5635
5.48588	91.7063
5.45127	91.8308
5.41709	92.1133
5.38334	92.2842
5.35	92.6091
5.31708	92.9041
5.28456	93.2813
5.25243	93.6492
5.2207	93.9851
5.18934	94.2712
5.15836	94.54
5.12775	94.7576
5.09749	94.8953
5.0676	94.998
5.03805	95.0642
5.00884	95.156
4.97998	95.2246
4.95144	95.1946
4.92322	95.3142
4.89533	95.3455
4.86775	95.4246
4.84048	95.5251
4.81351	95.5564
4.78684	95.6492
4.76047	95.7903
4.73439	95.8284
4.70859	95.8899
4.68306	96.0251
4.65782	96.1179
4.63284	96.24
4.60814	96.3108
4.58369	96.4275
4.5595	96.5159
4.53557	96.5666
4.51188	96.6374
4.48845	96.7058
4.46525	96.7195
4.44229	96.8328
4.41957	96.8738
4.39708	96.9534
4.37481	97.0085
4.35277	97.0349
4.33096	97.0837
4.30935	97.1277
4.28797	97.156
4.26679	97.2141
4.24583	97.2214
4.22506	97.2361
4.2045	97.2966
4.18414	97.2615
4.16398	97.3245
4.14401	97.2546
4.12423	97.3118
4.10464	97.3572
4.08523	97.385
4.066	97.3928
4.04696	97.4089
4.02809	97.3933
4.0094	97.4119
3.99088	97.4123
3.97253	97.4773
3.95435	97.491
3.93634	97.49
3.91848	97.5515
3.90079	97.5471
3.88326	97.5486
3.86589	97.5388
3.84867	97.5046
3.8316	97.5549
3.81468	97.5915
3.79791	97.5295
3.78129	97.5178
3.76482	97.4631
3.74848	97.4314
3.73229	97.4128
3.71624	97.3147
3.70032	97.3474
3.68454	97.2937
3.6689	97.2458
3.65338	97.2288
3.638	97.1794
3.62275	97.1228
3.60762	97.0588
3.59262	97.0217
3.57775	96.9548
3.56299	96.8342
3.54836	96.697
3.53385	96.5984
3.51945	96.3713
3.50517	95.8708
3.49101	95.9319
3.47696	95.7986
3.46303	95.7639
3.4492	95.51
3.43549	95.3035
3.42188	94.7341
3.40838	94.7517
3.39499	94.9841
3.38171	94.9265
3.36852	94.9905
3.35544	95.1091
3.34246	95.0974
3.32958	95.0393
3.3168	94.8845
3.30411	94.7517
3.29153	94.5569
3.27903	94.3669
3.26664	94.1404
3.25433	93.9255
3.24212	93.6677
3.23	93.4959
3.21797	93.1716
3.20603	92.8933
3.19418	92.6658
3.18241	92.3406
3.17074	91.9783
3.15914	91.6492
3.14763	91.3084
3.13621	90.8923
3.12487	90.5193
3.11361	90.1384
3.10243	89.7888
3.09133	89.4021
3.0803	89.0789
3.06936	88.7771
3.0585	88.4539
3.04771	88.1638
3.037	87.8562
3.02636	87.5154
3.0158	87.1599
3.00531	86.739
2.99489	86.3377
2.98454	85.9256
2.97427	85.4138
2.96407	85.0564
2.95393	84.5974
2.94387	84.2888
2.93387	84.076
2.92394	83.8338
2.91408	83.7615
2.90429	83.7469
2.89456	83.8562
2.88489	83.9539
2.87529	84.2117
2.86576	84.5056
2.85628	84.8845
2.84687	85.2146
2.83752	85.5818
2.82823	85.9109
2.81901	86.2547
2.80984	86.239
2.80073	85.3211
2.79168	82.1765
2.78269	75.7273
2.77376	67.7342
2.76488	56.1532
2.75606	48.6835
2.7473	53.1756
2.73859	57.369
2.72994	64.9061
2.72134	78.8435
2.7128	91.0007
2.70431	94.5085
2.69587	95.6951
2.68748	96.3044
2.67915	96.8796
2.67087	97.2458
2.66264	97.1755
2.65446	97.2263
2.64633	97.3728
2.63825	97.4568
2.63021	97.7654
2.62223	97.4841
2.6143	97.7029
2.60641	97.779
2.59857	97.7361
2.59078	97.8865
2.58304	98.0369
2.57534	98.0271
2.56768	97.9783
2.56008	98.0622
2.55251	97.8904
2.54499	97.9001
2.53752	97.947
2.53009	97.908
2.5227	97.8845
2.51536	97.863
2.50806	98.0427
2.5008	98.0642
2.49358	98.0505
2.4864	98.0622
2.47927	98.0115
2.47218	97.8552
2.46512	97.906
2.45811	97.9392
2.45114	97.9958
2.4442	97.8162
2.43731	98.0486
2.43045	97.9705
2.42363	97.9958
2.41685	98.0798
2.41011	98.1677
2.40341	98.1912
2.39674	98.283
2.39011	98.2224
2.38352	98.1501
2.37696	98.2048
2.37044	98.2185
2.36395	98.1599
2.35751	98.1091
2.35109	98.2185
2.34471	98.2439
2.33836	98.1912
2.33205	98.322
2.32578	98.4216
2.31953	98.3982
2.31332	98.447
2.30714	98.2048
2.301	98.5544
2.29489	98.5388
2.28881	98.531
2.28276	98.5115
2.27675	98.5896
2.27076	98.8826
2.26481	98.5505
2.25889	98.4333
2.253	98.3943
2.24714	98.4177
2.24131	98.4255
2.23551	98.5544
2.22974	98.6912
2.224	98.5076
2.21829	98.6755
2.21261	98.5388
2.20696	98.1872
2.20134	97.9685
2.19574	98.0076
2.19018	98.1716
2.18464	98.6443
2.17913	98.4724
2.17365	98.5544
2.16819	98.6755
2.16277	98.7849
2.15737	98.7068
2.15199	98.656
2.14665	98.5935
2.14133	98.7419
2.13603	98.8435
2.13077	98.6794
2.12552	98.7654
2.12031	98.8826
2.11512	98.8747
2.10995	98.8044
2.10481	98.7107
2.0997	98.5779
2.09461	98.8279
2.08954	98.7732
2.0845	98.8669
2.07948	98.9529
