Name: Pectolite NaCa2Si308(OH)
Type: Mineral
Class: Silicates
Subclass: Inosilicates (Chain Silicates); (Pyrexenoid Group)
Particle Size: Solid
Sample No.: pectol.2
Owner: JHU
Wavelength Range: IR
Origin: Thedford, Ontario, Canada via the Smithsonian (sample no.
Description: Sample consisted of a small (1 mm x 1 mm x 1 cm ) and
Measurement: Bidirectional reflectance
X Units: Wavelength (micrometers)
Y Units: Reflectance (percent)
wavelength	value
25.0442	14.1015
24.3388	16.4453
23.6719	15.1093
23.0407	16.7646
22.4422	22.6572
21.8741	28.3476
21.334	32.7245
20.8199	36.9931
20.33	38.0565
19.8627	36.5102
19.4163	26.8075
18.9896	24.342
18.5812	22.8137
18.19	19.0634
17.815	13.9101
17.4551	11.4651
17.1094	11.7939
16.7772	12.4428
16.4576	13.1972
16.15	14.007
15.8537	15.3549
15.568	18.1057
15.2925	12.3174
15.0265	12.5195
14.7697	19.2236
14.5214	17.1135
14.2814	15.2412
14.0492	13.6753
13.8244	13.8943
13.6067	14.1001
13.3957	14.3388
13.1912	14.6845
12.9929	14.9643
12.8004	15.3442
12.6135	15.7124
12.432	16.1113
12.2557	16.3833
12.0843	16.7465
11.9176	16.9003
11.7555	17.0678
11.5977	17.1938
11.444	17.4834
11.2944	18.4907
11.1487	21.5073
11.0067	28.5258
10.8682	33.7741
10.7332	37.975
10.6015	31.2985
10.473	28.2065
10.3476	32.1798
10.2251	29.4106
10.1056	30.6772
9.98873	25.8681
9.87458	16.8293
9.763	20.5302
9.65392	27.2407
9.54724	32.7526
9.44291	35.737
9.34082	38.081
9.24091	38.9816
9.14312	37.9745
9.04739	36.4792
8.95363	30.2416
8.8618	22.0178
8.77183	15.726
8.68368	11.7383
8.59727	8.0901
8.51257	5.7214
8.42951	5.7666
8.34807	6.6235
8.26819	7.3406
8.18981	7.9616
8.11292	8.4741
8.03745	8.8767
7.96337	9.2009
7.89064	9.4709
7.81924	9.7402
7.74911	9.9558
7.68023	10.1499
7.61256	10.313
7.54608	10.5451
7.48074	10.6828
7.41653	10.9272
7.35341	11.1279
7.29136	11.3679
7.23034	11.6172
7.17033	11.4819
7.11132	10.042
7.05327	9.8694
6.99616	10.435
6.93996	10.8283
6.88467	11.0132
6.83024	11.1162
6.77667	11.2094
6.72393	11.2651
6.67201	11.4294
6.62089	11.6176
6.57054	11.4985
6.52095	11.623
6.4721	11.7822
6.42398	11.7124
6.37657	11.8037
6.32986	11.9043
6.28382	11.9077
6.23845	11.9275
6.19373	11.9021
6.14965	11.9519
6.10619	12.02
6.06334	12.0969
6.02109	12.0612
5.97942	12.1128
5.93832	11.8335
5.89778	11.937
5.8578	12.1792
5.81835	12.1325
5.77943	12.2588
5.74103	12.3574
5.70314	12.3093
5.66574	12.3288
5.62883	12.3142
5.5924	12.3349
5.55644	12.3103
5.52093	12.3767
5.48588	12.365
5.45127	12.4226
5.41709	12.4101
5.38334	12.4458
5.35	12.3769
5.31708	12.4426
5.28456	12.4189
5.25243	12.3703
5.2207	12.3362
5.18934	12.3606
5.15836	12.3747
5.12775	12.3962
5.09749	12.3911
5.0676	12.3747
5.03805	12.365
5.00884	12.3362
4.97998	12.3105
4.95144	12.3364
4.92322	12.3364
4.89533	12.4116
4.86775	12.4729
4.84048	12.4919
4.81351	12.5193
4.78684	12.5266
4.76047	12.5224
4.73439	12.5725
4.70859	12.6577
4.68306	12.6933
4.65782	12.7309
4.63284	12.7915
4.60814	12.8254
4.58369	12.8574
4.5595	12.8672
4.53557	12.8882
4.51188	12.8901
4.48845	12.9062
4.46525	12.9121
4.44229	12.9192
4.41957	12.9233
4.39708	12.9038
4.37481	12.917
4.35277	12.8935
4.33096	12.8125
4.30935	12.6897
4.28797	12.5129
4.26679	12.5503
4.24583	12.4424
4.22506	12.4516
4.2045	12.74
4.18414	12.8569
4.16398	12.8479
4.14401	12.8501
4.12423	12.8601
4.10464	12.8772
4.08523	12.8589
4.066	12.8715
4.04696	12.8923
4.02809	12.8911
4.0094	12.8943
3.99088	12.9091
3.97253	12.9326
3.95435	12.9299
3.93634	12.9426
3.91848	12.9421
3.90079	12.9404
3.88326	12.946
3.86589	12.9284
3.84867	12.9279
3.8316	12.914
3.81468	12.9206
3.79791	12.9135
3.78129	12.9113
3.76482	12.8899
3.74848	12.8794
3.73229	12.8537
3.71624	12.8466
3.70032	12.8183
3.68454	12.8083
3.6689	12.7973
3.65338	12.7744
3.638	12.7597
3.62275	12.7436
3.60762	12.7085
3.59262	12.6887
3.57775	12.6552
3.56299	12.6631
3.54836	12.6557
3.53385	12.6589
3.51945	12.6606
3.50517	12.6023
3.49101	12.5263
3.47696	12.5542
3.46303	12.6001
3.4492	12.5988
3.43549	12.5898
3.42188	12.5874
3.40838	12.4492
3.39499	12.4223
3.38171	12.4487
3.36852	12.4633
3.35544	12.4858
3.34246	12.5092
3.32958	12.5454
3.3168	12.5385
3.30411	12.5424
3.29153	12.5693
3.27903	12.5595
3.26664	12.5507
3.25433	12.5454
3.24212	12.5429
3.23	12.5664
3.21797	12.5468
3.20603	12.5444
3.19418	12.5405
3.18241	12.5366
3.17074	12.5271
3.15914	12.5417
3.14763	12.5193
3.13621	12.5153
3.12487	12.5005
3.11361	12.4973
3.10243	12.4756
3.09133	12.4675
3.0803	12.4692
3.06936	12.4663
3.0585	12.4712
3.04771	12.4377
3.037	12.4409
3.02636	12.4428
3.0158	12.4321
3.00531	12.414
2.99489	12.4294
2.98454	12.4018
2.97427	12.3896
2.96407	12.3625
2.95393	12.3662
2.94387	12.3545
2.93387	12.3325
2.92394	12.3413
2.91408	12.2929
2.90429	12.3134
2.89456	12.3056
2.88489	12.2973
2.87529	12.2815
2.86576	12.3217
2.85628	12.3154
2.84687	12.3264
2.83752	12.3137
2.82823	12.3091
2.81901	12.3383
2.80984	12.3383
2.80073	12.4301
2.79168	12.3447
2.78269	12.3003
2.77376	12.3857
2.76488	12.3418
2.75606	12.2148
2.7473	12.3186
2.73859	12.33
2.72994	12.334
2.72134	12.3164
2.7128	12.3364
2.70431	12.3217
2.69587	12.29
2.68748	12.3066
2.67915	12.2695
2.67087	12.2295
2.66264	12.3344
2.65446	12.3134
2.64633	12.2334
2.63825	12.2558
2.63021	12.2314
2.62223	12.2812
2.6143	12.3398
2.60641	12.25
2.59857	12.2446
2.59078	12.2949
2.58304	12.2568
2.57534	12.25
2.56768	12.2129
2.56008	12.1919
2.55251	12.164
2.54499	12.1767
2.53752	12.1821
2.53009	12.1718
2.5227	12.1255
2.51536	12.1357
2.50806	12.1308
2.5008	12.122
2.49358	12.124
2.4864	12.0927
2.47927	12.1113
2.47218	12.0571
2.46512	12.0888
2.45811	12.0586
2.45114	12.0429
2.4442	12.0376
2.43731	12.0742
2.43045	12.0322
2.42363	12.0356
2.41685	12.0434
2.41011	12.0551
2.40341	12.0234
2.39674	12.0175
2.39011	12.0175
2.38352	11.9751
2.37696	12.061
2.37044	12.0395
2.36395	12.0234
2.35751	12.0224
2.35109	12.0273
2.34471	12.0937
2.33836	11.997
2.33205	11.9648
2.32578	12.0449
2.31953	12.0898
2.31332	12.0468
2.30714	12.0615
2.301	12.0625
2.29489	12.1294
2.28881	12.1508
2.28276	12.1933
2.27675	12.1445
2.27076	12.1723
2.26481	12.1997
2.25889	12.1562
2.253	12.1884
2.24714	12.206
2.24131	12.2363
2.23551	12.25
2.22974	12.2685
2.224	12.2597
2.21829	12.2724
2.21261	12.3222
2.20696	12.2744
2.20134	12.2871
2.19574	12.2832
2.19018	12.3437
2.18464	12.374
2.17913	12.4179
2.17365	12.3457
2.16819	12.3984
2.16277	12.3955
2.15737	12.4218
2.15199	12.4248
2.14665	12.4004
2.14133	12.4345
2.13603	12.4541
2.13077	12.4902
2.12552	12.5156
2.12031	12.5361
2.11512	12.4668
2.10995	12.6132
2.10481	12.5322
2.0997	12.6172
2.09461	12.5791
2.08954	12.6269
2.0845	12.6806
2.07948	12.6484
