Name: Nepheline Syenite
Type: Rocks
Class: Igneous
Subclass: Intermediate
Particle Size: Solid
Sample No.: Syenite.H2
Owner: JHU
Origin: Blue Mountain, Methuen Twp., Ontario, via Ward's Scientific (Cat.
Description: A medium-grained leucocratic rock showing some foliation,
Measurement: Directional (10 degree) hemispherical reflectance
X Units: Wavelength (micrometers)
Y Units: Reflectance (percent)
wavelength	value
14.0112	5.8021
13.7147	3.6394
13.4304	5.5059
13.1577	5.1253
12.8959	3.6244
12.6443	3.4441
12.4023	3.1096
12.1694	3.6483
11.945	4.3017
11.7289	4.834
11.5203	5.2624
11.3191	5.7708
11.1248	6.4608
10.937	7.2382
10.7555	8.3294
10.5799	9.8803
10.4099	12.355
10.2454	16.9999
10.0859	22.6035
9.9313	27.5008
9.7814	24.4251
9.636	29.162
9.4948	24.4649
9.3577	20.0638
9.2245	19.1662
9.095	15.8029
8.9691	12.3548
8.8467	15.1092
8.7275	17.6412
8.6116	18.1216
8.4986	16.9908
8.3886	15.9218
8.2814	11.7539
8.1769	7.0172
8.075	3.0319
7.9756	1.3891
7.8786	0.8034
7.784	0.5932
7.6916	0.6106
7.6014	0.6532
7.5133	0.8271
7.4272	0.829
7.343	1.0589
7.2607	1.0647
7.1803	1.1894
7.1016	1.3148
7.0246	1.3847
6.9493	1.3725
6.8755	1.4789
6.8034	1.2881
6.7327	1.4515
6.6634	1.5532
6.5956	1.5998
6.5292	1.6758
6.464	1.8133
6.4002	1.8253
6.3376	1.9205
6.2762	1.8605
6.216	1.807
6.157	1.8605
6.099	1.8736
6.0421	1.8161
5.9863	1.8389
5.9315	1.8457
5.8777	1.8736
5.8249	1.9348
5.773	1.9598
5.722	2.0236
5.6719	2.0489
5.6227	2.1558
5.5744	2.1211
5.5268	2.2716
5.4801	2.291
5.4341	2.4223
5.3889	2.6247
5.3445	2.6519
5.3008	2.6956
5.2578	2.7382
5.2154	2.7736
5.1738	2.8429
5.1328	2.8735
5.0925	3.0455
5.0528	3.1716
5.0137	3.2548
4.9752	3.3694
4.9373	3.4903
4.9	3.4374
4.8632	3.5496
4.827	3.7244
4.7913	3.6691
4.7561	3.7429
4.7215	3.9255
4.6873	4.0306
4.6536	4.1948
4.6205	4.4124
4.5877	4.8101
4.5555	5.0917
4.5237	5.4091
4.4923	5.8483
4.4614	6.2922
4.4309	6.5934
4.4008	6.8805
4.3711	7.293
4.3418	7.7707
4.3129	8.3794
4.2844	9.0698
4.2563	9.7242
4.2285	10.3286
4.2011	10.9308
4.174	11.3472
4.1473	11.4743
4.1209	11.5239
4.0949	11.6247
4.0692	11.696
4.0438	11.6826
4.0187	11.8784
3.994	12.0684
3.9695	12.1207
3.9453	12.4779
3.9214	12.7043
3.8979	13.1758
3.8746	13.3947
3.8515	13.2281
3.8288	13.3976
3.8063	13.9163
3.7841	14.2891
3.7621	14.6002
3.7404	14.8929
3.7189	14.9768
3.6977	15.0977
3.6767	15.1792
3.656	15.1813
3.6355	14.5413
3.6152	14.6449
3.5951	14.7007
3.5753	14.4164
3.5557	14.2145
3.5363	13.8082
3.5171	13.2005
3.4981	12.3937
3.4793	12.423
3.4607	12.0621
3.4423	11.5259
3.4241	10.6847
3.4061	10.6174
3.3883	10.6085
3.3707	10.4044
3.3533	10.3322
3.336	10.019
3.3189	9.7385
3.302	9.3752
3.2853	9.0764
3.2687	8.8101
3.2523	8.6119
3.2361	8.4319
3.22	8.1602
3.204	7.991
3.1883	7.7779
3.1727	7.4984
3.1572	7.2953
3.1419	7.1709
3.1268	6.9878
3.1117	6.8625
3.0969	6.6792
3.0821	6.546
3.0675	6.4356
3.0531	6.461
3.0388	6.5979
3.0246	6.581
3.0105	6.6129
2.9966	6.4621
2.9828	6.5008
2.9692	6.6096
2.9556	6.5681
2.9422	6.6745
2.9289	6.5555
2.9157	6.7441
2.9027	6.7694
2.8897	6.7212
2.8769	6.9722
2.8642	7.1649
2.8516	7.1578
2.8391	7.3551
2.8267	7.553
2.8144	7.6312
2.8022	7.9132
2.7902	8.1802
2.7782	8.1829
2.7664	8.2929
2.7546	8.9841
2.7429	10.5228
2.7314	12.1129
2.7199	14.0285
2.7085	16.2761
2.6973	18.4617
2.6861	19.9973
2.675	21.1233
2.664	21.9374
2.6531	22.5355
2.6423	23.0744
2.6315	23.5766
2.6209	23.8708
2.6103	24.1005
2.5999	24.1215
2.5895	24.2683
2.5792	24.1945
2.569	23.9495
2.5588	23.7259
2.5487	23.4918
2.5388	23.3558
2.5289	23.4178
2.519	23.6742
2.5093	23.7597
2.4996	23.8778
2.49	24.127
2.4805	24.2971
2.471	24.7373
2.4616	25.0516
2.4523	25.413
2.4431	25.828
2.4339	26.2452
2.4248	26.8729
2.4157	27.4354
2.4068	28.071
2.3979	28.6368
2.389	28.9908
2.3802	29.114
2.3715	29.143
2.3629	28.6305
2.3543	28.3832
2.3458	29.6394
2.3373	30.3269
2.3289	30.8936
2.3206	31.3157
2.3123	31.6218
2.3041	31.6005
2.2959	31.7193
2.2878	31.8747
2.2798	31.9298
2.2718	31.9614
2.2638	31.963
2.2559	32.0887
2.2481	32.4646
2.2403	32.7248
2.2326	32.9385
2.225	32.984
2.2173	32.6666
2.2098	32.3406
2.2023	31.8227
2.1948	31.7137
2.1874	32.2731
2.18	32.7887
2.1727	33.1194
2.1655	33.3791
2.1583	33.5488
2.1511	33.4428
2.144	33.5076
2.1369	33.6903
2.1299	33.4178
2.1229	33.7162
2.116	33.6459
2.1091	33.8108
2.1023	33.7523
2.0955	33.817
2.0887	33.8788
2.082	34.06
2.06	33.7849
2.028	33.6754
1.996	33.0811
1.964	32.3558
1.932	30.9839
1.9	30.0147
1.868	33.9432
1.836	34.2929
1.804	34.0541
1.772	34.2518
1.74	34.5592
1.708	34.5904
1.676	34.7086
1.644	34.8138
1.612	34.7305
1.58	35.244
1.548	35.1967
1.516	34.9728
1.484	35.0077
1.452	34.9408
1.42	33.7132
1.388	35.0174
1.356	35.4005
1.324	35.6652
1.292	35.3656
1.26	35.3678
1.228	35.2652
1.196	35.4718
1.164	35.2172
1.132	34.9747
1.1	35.321
1.068	35.2181
1.036	35.5352
1.004	35.8248
0.972	36.07
0.94	36.4898
0.908	36.8238
0.876	36.8993
0.844	37.4829
0.812	38.3291
0.795	38.2624
0.787	38.6873
0.779	38.5107
0.771	38.3945
0.763	38.8151
0.755	38.654
0.747	38.8109
0.739	38.5108
0.731	38.7665
0.723	38.732
0.715	38.3222
0.707	39.045
0.699	38.5984
0.691	38.3292
0.683	38.3892
0.675	38.4695
0.667	38.4033
0.659	39.0734
0.651	38.452
0.643	38.8915
0.635	38.9698
0.627	38.7921
0.619	38.8107
0.611	39.2084
0.603	39.0358
0.595	38.8561
0.587	38.7956
0.579	38.9288
0.571	38.7817
0.563	38.401
0.555	38.7133
0.547	38.5596
0.539	38.7056
0.531	37.9993
0.523	38.211
0.515	37.8684
0.507	37.3091
0.499	37.2015
0.491	37.0085
0.483	36.7233
0.475	36.1368
0.467	35.6123
0.459	35.4002
0.451	34.8047
0.443	34.4789
0.435	33.72
0.427	33.2702
0.419	32.412
0.411	31.7854
0.403	30.8526
