Name: Kaolinite Al2Si2O5(OH)4
Type: Mineral
Class: Silicates
Subclass: Phyllosilicates (Chain Silicates); (Serpentine/Kaoline Group)
Particle Size: Fine  (0-2 micrometers)
Sample No.: kaolinite.2
Owner: JHU
Wavelength Range: IR
Origin: Warren County, Georgia, via Hunt and Salisbury Collection
Description: Cream-colored, earthy clay. Completely disordered kaolinite.
Measurement: Bidirectional reflectance
X Units: Wavelength (micrometers)
Y Units: Reflectance (percent)
wavelength	value
25.0442	1.1436
24.3388	0.6377
23.6719	0.5867
23.0407	0.5503
22.4422	0.6389
21.8741	0.647
21.334	0.5273
20.8199	0.668
20.33	0.3899
19.8627	0.4878
19.4163	0.6299
18.9896	0.5649
18.5812	0.5117
18.19	0.5906
17.815	0.655
17.4551	0.7039
17.1094	0.6826
16.7772	0.6265
16.4576	0.5845
16.15	0.4932
15.8537	0.333
15.568	0.3083
15.2925	0.269
15.0265	0.2808
14.7697	0.2722
14.5214	0.2393
14.2814	0.2227
14.0492	0.1931
13.8244	0.3657
13.6067	0.4551
13.3957	0.3997
13.1912	0.355
12.9929	0.4993
12.8004	0.5571
12.6135	0.3945
12.432	0.5115
12.2557	1.0427
12.0843	1.3674
11.9176	1.5432
11.7555	1.6387
11.5977	1.5649
11.444	1.2651
11.2944	1.0945
11.1487	0.7507
11.0067	0.437
10.8682	0.3123
10.7332	0.2571
10.6015	0.2563
10.473	0.3657
10.3476	0.6343
10.2251	0.8396
10.1056	0.6609
9.98873	0.4402
9.87458	0.3748
9.763	0.3613
9.65392	0.4873
9.54724	0.5876
9.44291	0.6829
9.34082	0.7048
9.24091	0.6873
9.14312	0.479
9.04739	0.3689
8.95363	0.4775
8.8618	1.0679
8.77183	1.4524
8.68368	1.4832
8.59727	1.3425
8.51257	1.0649
8.42951	0.655
8.34807	0.3574
8.26819	0.2256
8.18981	0.2444
8.11292	0.3435
8.03745	0.4958
7.96337	0.7039
7.89064	0.9211
7.81924	1.1904
7.74911	1.477
7.68023	1.7048
7.61256	1.9309
7.54608	2.1465
7.48074	2.3555
7.41653	2.5127
7.35341	2.6621
7.29136	2.8332
7.23034	3.0295
7.17033	3.1865
7.11132	3.3459
7.05327	3.4766
6.99616	3.6658
6.93996	3.7988
6.88467	3.8755
6.83024	3.8782
6.77667	3.9851
6.72393	4.1401
6.67201	4.2331
6.62089	4.3452
6.57054	4.4975
6.52095	4.5586
6.4721	4.5759
6.42398	4.698
6.37657	4.7788
6.32986	4.7898
6.28382	4.8816
6.23845	4.9668
6.19373	4.9363
6.14965	4.8313
6.10619	4.793
6.06334	4.769
6.02109	4.7773
5.97942	4.9109
5.93832	4.9651
5.89778	4.9692
5.8578	4.8774
5.81835	4.7915
5.77943	4.8303
5.74103	4.9224
5.70314	4.9558
5.66574	5.0002
5.62883	5.1369
5.5924	5.1824
5.55644	4.9951
5.52093	4.5229
5.48588	4.1475
5.45127	4.3891
5.41709	4.6763
5.38334	4.9436
5.35	5.1926
5.31708	5.3301
5.28456	5.3447
5.25243	5.2165
5.2207	5.084
5.18934	5.0207
5.15836	5.0842
5.12775	5.2973
5.09749	5.6565
5.0676	6.0732
5.03805	6.4731
5.00884	6.7807
4.97998	7.02
4.95144	7.2309
4.92322	7.3664
4.89533	7.4812
4.86775	7.6494
4.84048	7.8025
4.81351	7.9773
4.78684	8.1365
4.76047	8.2412
4.73439	8.2712
4.70859	8.2844
4.68306	8.2978
4.65782	8.3843
4.63284	8.5727
4.60814	8.799
4.58369	8.9836
4.5595	9.0954
4.53557	9.1675
4.51188	9.1909
4.48845	9.2549
4.46525	9.354
4.44229	9.4221
4.41957	9.4792
4.39708	9.5127
4.37481	9.5542
4.35277	9.5903
4.33096	9.636
4.30935	9.6723
4.28797	9.678
4.26679	9.572
4.24583	9.7385
4.22506	9.8003
4.2045	9.8257
4.18414	9.8464
4.16398	9.8681
4.14401	9.8874
4.12423	9.9096
4.10464	9.9341
4.08523	9.9616
4.066	9.9902
4.04696	10.0097
4.02809	10.039
4.0094	10.0561
3.99088	10.063
3.97253	10.0732
3.95435	10.0898
3.93634	10.1059
3.91848	10.1201
3.90079	10.145
3.88326	10.1504
3.86589	10.1235
3.84867	10.1059
3.8316	10.0866
3.81468	10.0654
3.79791	10.041
3.78129	10.0146
3.76482	9.9787
3.74848	9.9211
3.73229	9.855
3.71624	9.7673
3.70032	9.5432
3.68454	9.5498
3.6689	9.6518
3.65338	9.6638
3.638	9.6455
3.62275	9.5927
3.60762	9.5432
3.59262	9.4902
3.57775	9.4153
3.56299	9.3391
3.54836	9.3
3.53385	9.2326
3.51945	9.1389
3.50517	9.0525
3.49101	9.0522
3.47696	9.0053
3.46303	8.969
3.4492	8.8718
3.43549	8.7771
3.42188	8.6157
3.40838	8.5617
3.39499	8.5803
3.38171	8.5202
3.36852	8.4873
3.35544	8.4421
3.34246	8.3796
3.32958	8.321
3.3168	8.2453
3.30411	8.1714
3.29153	8.0925
3.27903	8.0285
3.26664	7.9475
3.25433	7.8808
3.24212	7.823
3.23	7.7375
3.21797	7.6592
3.20603	7.5837
3.19418	7.5185
3.18241	7.4604
3.17074	7.395
3.15914	7.3318
3.14763	7.2544
3.13621	7.1662
3.12487	7.0898
3.11361	7.0312
3.10243	6.9524
3.09133	6.8799
3.0803	6.8198
3.06936	6.7322
3.0585	6.6326
3.04771	6.5439
3.037	6.4563
3.02636	6.3613
3.0158	6.2532
3.00531	6.136
2.99489	6.0105
2.98454	5.9001
2.97427	5.7944
2.96407	5.7114
2.95393	5.6108
2.94387	5.4988
2.93387	5.3259
2.92394	5.0295
2.91408	4.334
2.90429	4.5554
2.89456	4.6748
2.88489	4.5845
2.87529	4.4836
2.86576	4.3828
2.85628	4.218
2.84687	4.0979
2.83752	3.9575
2.82823	3.7983
2.81901	3.6121
2.80984	3.4392
2.80073	3.1497
2.79168	2.7349
2.78269	2.1418
2.77376	1.6956
2.76488	0.5674
2.75606	0.4404
2.7473	0.6353
2.73859	0.3728
2.72994	0.4414
2.72134	0.4983
2.7128	0.4114
2.70431	0.2642
2.69587	0.7847
2.68748	2.2136
2.67915	3.6811
2.67087	4.8537
2.66264	5.779
2.65446	6.4328
2.64633	6.8686
2.63825	7.259
2.63021	7.5818
2.62223	7.8186
2.6143	7.9924
2.60641	8.1054
2.59857	8.2085
2.59078	8.2915
2.58304	8.4101
2.57534	8.4841
2.56768	8.626
2.56008	8.7993
2.55251	8.8894
2.54499	8.9145
2.53752	9.0556
2.53009	9.1035
2.5227	9.1836
2.51536	9.2871
2.50806	9.3447
2.5008	9.4487
2.49358	9.4746
2.4864	9.5053
2.47927	9.7363
2.47218	9.8232
2.46512	9.8843
2.45811	9.9614
2.45114	10.052
2.4442	10.1059
2.43731	10.2373
2.43045	10.5
2.42363	10.6496
2.41685	10.7446
2.41011	10.8274
2.40341	10.8398
2.39674	10.7236
2.39011	10.5171
2.38352	10.4707
2.37696	10.675
2.37044	10.8408
2.36395	10.9082
2.35751	10.8432
2.35109	11.0317
2.34471	11.1665
2.33836	11.3203
2.33205	11.2668
2.32578	11.2197
2.31953	11.3374
2.31332	11.3159
2.30714	11.4839
2.301	11.6233
2.29489	11.7514
2.28881	11.8515
2.28276	11.9206
2.27675	12.0598
2.27076	12.1301
2.26481	12.1999
2.25889	12.2346
2.253	12.2754
2.24714	12.3137
2.24131	12.164
2.23551	12.2036
2.22974	12.2094
2.224	12.0068
2.21829	11.5725
2.21261	10.2234
2.20696	9.2275
2.20134	10.4262
2.19574	10.7451
2.19018	10.917
2.18464	11.0317
2.17913	11.04
2.17365	11.0881
2.16819	11.0908
2.16277	11.1379
2.15737	11.2866
2.15199	11.6484
2.14665	12.1313
2.14133	12.5986
2.13603	12.8999
2.13077	12.9731
2.12552	13.1455
2.12031	13.2024
2.11512	13.2297
2.10995	13.3271
2.10481	13.4443
2.0997	13.4614
2.09461	13.5468
2.08954	13.5708
2.0845	13.6621
2.07948	13.6562
