Name: Granite
Type: Rocks
Class: Igneous
Subclass: Felsic
Particle Size: Solid
Sample No.: Granite.H5
Owner: JHU
Origin: From Santa Rita Mountains, Arizona via Smithsonian (Cat No.
Description: A pinkish medium-grained sample consisting of feldspar and
Measurement: Directional (10 degree) hemispherical reflectance
X Units: Wavelength (micrometers)
Y Units: Reflectance (percent)
wavelength	value
14.0112	2.04
13.7147	4.1569
13.4304	3.5761
13.1577	4.7943
12.8959	5.039
12.6443	4.3478
12.4023	4.2135
12.1694	2.6632
11.945	3.4399
11.7289	3.8878
11.5203	4.4006
11.3191	4.9696
11.1248	5.4954
10.937	6.112
10.7555	6.8179
10.5799	7.7576
10.4099	9.3488
10.2454	11.9296
10.0859	15.7556
9.9313	19.5013
9.7814	19.9188
9.636	21.9415
9.4948	22.3033
9.3577	24.8573
9.2245	27.1378
9.095	24.7225
8.9691	22.7207
8.8467	23.4576
8.7275	22.9732
8.6116	20.1818
8.4986	23.4199
8.3886	22.3501
8.2814	19.3108
8.1769	15.7242
8.075	7.9854
7.9756	3.7781
7.8786	1.7522
7.784	1.0629
7.6916	0.6951
7.6014	0.5257
7.5133	0.5224
7.4272	0.5196
7.343	0.5486
7.2607	0.5796
7.1803	0.6865
7.1016	0.7743
7.0246	0.8486
6.9493	0.9394
6.8755	0.9581
6.8034	0.9994
6.7327	1.0826
6.6634	1.0959
6.5956	1.1358
6.5292	1.1894
6.464	1.256
6.4002	1.2825
6.3376	1.2636
6.2762	1.3118
6.216	1.3216
6.157	1.3671
6.099	1.4203
6.0421	1.4574
5.9863	1.4855
5.9315	1.5031
5.8777	1.553
5.8249	1.6024
5.773	1.6476
5.722	1.6735
5.6719	1.706
5.6227	1.7294
5.5744	1.7436
5.5268	1.7613
5.4801	1.8478
5.4341	1.909
5.3889	1.92
5.3445	1.9446
5.3008	1.995
5.2578	2.0107
5.2154	2.1075
5.1738	2.1909
5.1328	2.2863
5.0925	2.359
5.0528	2.3984
5.0137	2.4358
4.9752	2.5319
4.9373	2.6205
4.9	2.7021
4.8632	2.9198
4.827	3.0553
4.7913	3.0649
4.7561	3.1592
4.7215	3.2501
4.6873	3.2475
4.6536	3.3377
4.6205	3.5745
4.5877	3.7556
4.5555	3.919
4.5237	4.0207
4.4923	4.0369
4.4614	4.2028
4.4309	4.4725
4.4008	4.7779
4.3711	5.1794
4.3418	5.6109
4.3129	5.9459
4.2844	6.1818
4.2563	6.4966
4.2285	6.7999
4.2011	7.0502
4.174	7.2891
4.1473	7.5265
4.1209	7.8241
4.0949	8.1031
4.0692	8.32
4.0438	8.4002
4.0187	8.4192
3.994	8.4904
3.9695	8.6317
3.9453	8.8664
3.9214	9.074
3.8979	9.1242
3.8746	9.1167
3.8515	9.1465
3.8288	9.2602
3.8063	9.337
3.7841	9.3579
3.7621	9.2623
3.7404	9.1839
3.7189	9.2454
3.6977	9.2845
3.6767	9.3241
3.656	9.3131
3.6355	9.2514
3.6152	9.1251
3.5951	8.995
3.5753	8.8553
3.5557	8.689
3.5363	8.5092
3.5171	8.178
3.4981	7.7992
3.4793	7.6985
3.4607	7.5605
3.4423	7.2488
3.4241	6.7976
3.4061	6.6691
3.3883	6.5535
3.3707	6.345
3.3533	6.2393
3.336	6.0761
3.3189	5.8624
3.302	5.6498
3.2853	5.4581
3.2687	5.2696
3.2523	5.0935
3.2361	4.919
3.22	4.7517
3.204	4.601
3.1883	4.5018
3.1727	4.3582
3.1572	4.2614
3.1419	4.1702
3.1268	4.1275
3.1117	4.0504
3.0969	4.0045
3.0821	3.9862
3.0675	3.9558
3.0531	4.0013
3.0388	3.9659
3.0246	3.9989
3.0105	3.979
2.9966	3.9164
2.9828	3.9366
2.9692	3.9517
2.9556	3.915
2.9422	3.9272
2.9289	4.0029
2.9157	3.9576
2.9027	4.0985
2.8897	4.1025
2.8769	4.1667
2.8642	4.253
2.8516	4.361
2.8391	4.4107
2.8267	4.5178
2.8144	4.574
2.8022	4.6332
2.7902	4.6793
2.7782	4.6617
2.7664	4.7724
2.7546	4.8691
2.7429	5.2577
2.7314	5.9083
2.7199	7.1456
2.7085	7.6813
2.6973	10.0052
2.6861	12.7509
2.675	14.336
2.664	15.236
2.6531	15.7582
2.6423	16.1215
2.6315	16.5534
2.6209	16.8613
2.6103	17.0282
2.5999	17.1919
2.5895	17.355
2.5792	17.429
2.569	17.6072
2.5588	17.6802
2.5487	17.7623
2.5388	17.8467
2.5289	17.8382
2.519	17.8963
2.5093	17.9669
2.4996	18.0731
2.49	18.1828
2.4805	18.2948
2.471	18.4338
2.4616	18.5343
2.4523	18.6163
2.4431	18.7722
2.4339	18.9848
2.4248	19.1127
2.4157	19.3912
2.4068	19.5496
2.3979	19.6251
2.389	19.7807
2.3802	19.8135
2.3715	19.8524
2.3629	19.9813
2.3543	19.9958
2.3458	20.0981
2.3373	20.444
2.3289	20.6409
2.3206	20.9831
2.3123	21.1753
2.3041	21.4101
2.2959	21.5357
2.2878	21.6623
2.2798	21.7195
2.2718	21.8285
2.2638	21.7734
2.2559	21.6461
2.2481	21.5725
2.2403	21.5873
2.2326	21.546
2.225	21.4329
2.2173	21.3506
2.2098	21.0534
2.2023	21.3937
2.1948	21.75
2.1874	22.1676
2.18	22.4165
2.1727	22.6547
2.1655	22.7898
2.1583	23.0151
2.1511	23.087
2.144	23.2982
2.1369	23.3781
2.1299	23.3362
2.1229	23.3861
2.116	23.3646
2.1091	23.406
2.1023	23.5888
2.0955	23.6252
2.0887	23.7243
2.082	23.6986
2.06	23.6776
2.028	23.4177
1.996	23.248
1.964	22.7169
1.932	22.6929
1.9	22.9809
1.868	24.9295
1.836	25.7594
1.804	25.8773
1.772	26.0594
1.74	26.3084
1.708	26.5395
1.676	26.7865
1.644	26.8835
1.612	27.0476
1.58	27.1925
1.548	27.656
1.516	27.5951
1.484	27.6793
1.452	27.6926
1.42	27.4381
1.388	28.1349
1.356	29.0239
1.324	29.106
1.292	29.3948
1.26	29.6318
1.228	29.6064
1.196	30.1305
1.164	30.1129
1.132	30.1966
1.1	30.2951
1.068	30.416
1.036	30.4636
1.004	30.5498
0.972	30.608
0.94	30.597
0.908	30.9677
0.876	31.2493
0.844	32.0564
0.812	32.8777
0.795	33.1385
0.787	33.7991
0.779	33.2552
0.771	33.5265
0.763	33.4506
0.755	33.5789
0.747	33.5102
0.739	33.606
0.731	33.6107
0.723	33.3829
0.715	33.235
0.707	33.1002
0.699	33.016
0.691	32.8966
0.683	33.0961
0.675	32.5593
0.667	32.5525
0.659	32.5407
0.651	32.2688
0.643	32.2859
0.635	32.3931
0.627	31.7789
0.619	31.9784
0.611	31.6733
0.603	31.6035
0.595	31.445
0.587	30.9963
0.579	30.4087
0.571	29.9314
0.563	28.6767
0.555	27.8409
0.547	27.3176
0.539	26.688
0.531	26.3402
0.523	25.705
0.515	25.8126
0.507	25.1516
0.499	24.9177
0.491	24.6114
0.483	24.6168
0.475	24.7032
0.467	24.2433
0.459	23.7539
0.451	23.8025
0.443	23.4606
0.435	22.9675
0.427	22.6029
0.419	21.9531
0.411	21.6624
0.403	21.2552
