Name: Richterite Na2Ca(Mg,Fe+2)5Si8O22(OH)2
Type: Mineral
Class: Silicates
Subclass: Inosilicates (chain silicates); (Amphibole Group)
Particle Size: Solid (cleavage face)
Sample No.: richter.1
Owner: JHU
Wavelength Range: IR
Origin: Wilberforce, Ontario, Canada via the Smithsonian (sample no.
Description: The sample consisted of two large (6.49 and 6.45 g)
Measurement: Bidirectional reflectance
X Units: Wavelength (micrometers)
Y Units: Reflectance (percent)
wavelength	value
25.0442	26.5058
24.3388	27.9267
23.6719	31.0351
23.0407	35.1586
22.4422	42.6151
21.8741	52.3143
21.334	46.0204
20.8199	43.872
20.33	48.8573
19.8627	52.715
19.4163	55.0868
18.9896	57.2062
18.5812	62.2237
18.19	54.0316
17.815	49.1293
17.4551	43.3807
17.1094	26.8979
16.7772	14.0009
16.4576	10.3398
16.15	10.9734
15.8537	11.7365
15.568	12.9375
15.2925	14.437
15.0265	16.2778
14.7697	13.7451
14.5214	13.2939
14.2814	13.4358
14.0492	13.8896
13.8244	14.1103
13.6067	15.3418
13.3957	16.4296
13.1912	15.0444
12.9929	13.8017
12.8004	14.5195
12.6135	15.1611
12.432	15.7236
12.2557	16.236
12.0843	16.9018
11.9176	17.6909
11.7555	18.4892
11.5977	19.2568
11.444	20.5082
11.2944	22.111
11.1487	23.8351
11.0067	26.163
10.8682	28.5656
10.7332	28.3605
10.6015	30.2441
10.473	36.5819
10.3476	44.5333
10.2251	52.4708
10.1056	57.6395
9.98873	57.1698
9.87458	51.0763
9.763	39.5014
9.65392	32.2516
9.54724	33.7646
9.44291	38.1437
9.34082	40.1684
9.24091	40.0624
9.14312	37.7655
9.04739	35.248
8.95363	35.269
8.8618	32.9467
8.77183	34.1986
8.68368	36.9926
8.59727	32.6298
8.51257	21.4785
8.42951	12.0615
8.34807	6.2842
8.26819	3.6504
8.18981	4.144
8.11292	4.9443
8.03745	5.5889
7.96337	6.1445
7.89064	6.6535
7.81924	7.135
7.74911	7.53
7.68023	7.8911
7.61256	8.1782
7.54608	8.4414
7.48074	8.6697
7.41653	8.8796
7.35341	9.0454
7.29136	9.1941
7.23034	9.354
7.17033	9.5376
7.11132	9.7165
7.05327	9.843
6.99616	9.917
6.93996	9.9702
6.88467	10.0652
6.83024	10.1474
6.77667	10.2483
6.72393	10.2873
6.67201	10.3601
6.62089	10.4375
6.57054	10.5351
6.52095	10.5991
6.4721	10.6484
6.42398	10.6386
6.37657	10.6301
6.32986	10.6487
6.28382	10.6723
6.23845	10.6845
6.19373	10.6743
6.14965	10.6831
6.10619	10.6758
6.06334	10.7131
6.02109	10.7085
5.97942	10.6858
5.93832	10.6469
5.89778	10.5937
5.8578	10.5412
5.81835	10.4973
5.77943	10.6115
5.74103	10.7588
5.70314	10.7778
5.66574	10.7368
5.62883	10.747
5.5924	10.749
5.55644	10.7658
5.52093	10.78
5.48588	10.8022
5.45127	10.823
5.41709	10.8386
5.38334	10.864
5.35	10.8886
5.31708	10.9035
5.28456	10.9233
5.25243	10.9521
5.2207	10.9636
5.18934	10.9787
5.15836	10.9785
5.12775	10.9912
5.09749	10.9709
5.0676	10.9648
5.03805	10.9551
5.00884	10.9616
4.97998	10.9541
4.95144	10.9619
4.92322	10.9614
4.89533	10.9843
4.86775	10.9951
4.84048	11.0068
4.81351	11.0195
4.78684	11.0371
4.76047	11.0571
4.73439	11.0901
4.70859	11.1211
4.68306	11.1179
4.65782	11.1565
4.63284	11.206
4.60814	11.2485
4.58369	11.2907
4.5595	11.3479
4.53557	11.4052
4.51188	11.4751
4.48845	11.5556
4.46525	11.6074
4.44229	11.645
4.41957	11.6889
4.39708	11.7192
4.37481	11.7524
4.35277	11.778
4.33096	11.7885
4.30935	11.8
4.28797	11.8254
4.26679	11.8476
4.24583	11.8562
4.22506	11.8799
4.2045	11.8965
4.18414	11.9148
4.16398	11.9394
4.14401	11.9397
4.12423	11.9568
4.10464	11.957
4.08523	11.9707
4.066	11.9499
4.04696	11.9414
4.02809	11.8955
4.0094	11.8325
3.99088	11.7358
3.97253	11.7434
3.95435	11.7939
3.93634	11.8891
3.91848	11.9309
3.90079	11.9653
3.88326	11.9814
3.86589	11.9819
3.84867	12.0097
3.8316	12.0478
3.81468	12.1142
3.79791	12.1848
3.78129	12.2549
3.76482	12.2871
3.74848	12.3086
3.73229	12.3213
3.71624	12.3186
3.70032	12.33
3.68454	12.333
3.6689	12.332
3.65338	12.3388
3.638	12.3342
3.62275	12.3227
3.60762	12.3413
3.59262	12.3286
3.57775	12.3022
3.56299	12.2939
3.54836	12.2763
3.53385	12.2212
3.51945	12.1455
3.50517	12.1489
3.49101	12.1479
3.47696	12.1382
3.46303	12.209
3.4492	12.2422
3.43549	12.2715
3.42188	12.3174
3.40838	12.3584
3.39499	12.333
3.38171	12.334
3.36852	12.3923
3.35544	12.3071
3.34246	12.3076
3.32958	12.3579
3.3168	12.3833
3.30411	12.4026
3.29153	12.3967
3.27903	12.3979
3.26664	12.3781
3.25433	12.3737
3.24212	12.3579
3.23	12.3679
3.21797	12.3896
3.20603	12.4123
3.19418	12.3999
3.18241	12.3996
3.17074	12.4013
3.15914	12.3962
3.14763	12.3862
3.13621	12.3632
3.12487	12.3403
3.11361	12.3425
3.10243	12.3664
3.09133	12.3769
3.0803	12.3759
3.06936	12.3874
3.0585	12.3801
3.04771	12.3711
3.037	12.3764
3.02636	12.3545
3.0158	12.3401
3.00531	12.3274
2.99489	12.3276
2.98454	12.3125
2.97427	12.2988
2.96407	12.2739
2.95393	12.2668
2.94387	12.2524
2.93387	12.2368
2.92394	12.2219
2.91408	12.2129
2.90429	12.2334
2.89456	12.206
2.88489	12.2173
2.87529	12.1985
2.86576	12.1914
2.85628	12.1933
2.84687	12.2063
2.83752	12.1721
2.82823	12.1465
2.81901	12.1777
2.80984	12.1748
2.80073	12.1967
2.79168	12.1621
2.78269	12.1692
2.77376	12.1836
2.76488	12.1416
2.75606	12.0783
2.7473	12.0219
2.73859	11.7226
2.72994	11.3703
2.72134	11.2658
2.7128	11.4201
2.70431	11.2668
2.69587	11.2129
2.68748	11.3476
2.67915	11.747
2.67087	12.2983
2.66264	12.519
2.65446	12.497
2.64633	12.4946
2.63825	12.5083
2.63021	12.5014
2.62223	12.5107
2.6143	12.5229
2.60641	12.5097
2.59857	12.4951
2.59078	12.5063
2.58304	12.4819
2.57534	12.479
2.56768	12.4428
2.56008	12.416
2.55251	12.4492
2.54499	12.458
2.53752	12.4306
2.53009	12.4697
2.5227	12.4922
2.51536	12.4843
2.50806	12.5
2.5008	12.5215
2.49358	12.4941
2.4864	12.4834
2.47927	12.5122
2.47218	12.4619
2.46512	12.4555
2.45811	12.4795
2.45114	12.4951
2.4442	12.4961
2.43731	12.4912
2.43045	12.52
2.42363	12.541
2.41685	12.5278
2.41011	12.5879
2.40341	12.5644
2.39674	12.4809
2.39011	12.3379
2.38352	12.2539
2.37696	12.1875
2.37044	12.3383
2.36395	12.5215
2.35751	12.58
2.35109	12.6601
2.34471	12.6943
2.33836	12.7173
2.33205	12.6587
2.32578	12.5586
2.31953	12.3286
2.31332	12.1704
2.30714	12.2998
2.301	12.498
2.29489	12.6699
2.28881	12.8007
2.28276	12.8559
2.27675	12.9257
2.27076	12.9541
2.26481	13.0527
2.25889	13.1172
2.253	13.125
2.24714	13.1494
2.24131	13.2158
2.23551	13.1953
2.22974	13.2695
2.224	13.2539
2.21829	13.2509
2.21261	13.3007
2.20696	13.2363
2.20134	13.2822
2.19574	13.3242
2.19018	13.3281
2.18464	13.3613
2.17913	13.3857
2.17365	13.375
2.16819	13.3515
2.16277	13.4433
2.15737	13.4492
2.15199	13.4531
2.14665	13.3925
2.14133	13.4228
2.13603	13.4111
2.13077	13.4072
2.12552	13.4707
2.12031	13.4238
2.11512	13.4892
2.10995	13.4423
2.10481	13.4814
2.0997	13.4804
2.09461	13.5595
2.08954	13.5595
2.0845	13.4804
2.07948	13.5234
