Name: Erionite (K2,Ca,Na2)2Al4Si14O36.15H2O
Type: Mineral
Class: Silicates
Subclass: Tectosilicates  (Zeolite Group)
Particle Size: Coarse  (74-250 Micrometers)
Sample No.: erionite.1
Owner: JHU
Wavelength Range: IR
Origin: Donated by W. J. Ehmann;  Sample #15 from Rome, Oregon.
Description: The hand sample was a cream-colored, earthy mass.  As
Measurement: Bidirectional reflectance
X Units: Wavelength (micrometers)
Y Units: Reflectance (percent)
wavelength	value
25.0442	5.1797
24.3388	5.7471
23.6719	5.323
23.0407	6.1997
22.4422	6.1994
21.8741	5.1606
21.334	6.2212
20.8199	6.8909
20.33	5.2734
19.8627	3.6511
19.4163	2.7815
18.9896	2.3445
18.5812	2.2629
18.19	2.2156
17.815	2.114
17.4551	2.2654
17.1094	2.1392
16.7772	2.019
16.4576	2.1064
16.15	2.2454
15.8537	2.3516
15.568	2.1882
15.2925	1.9453
15.0265	1.9224
14.7697	1.989
14.5214	2.0649
14.2814	2.1016
14.0492	2.1492
13.8244	2.1343
13.6067	2.0789
13.3957	2.1006
13.1912	2.1916
12.9929	2.2456
12.8004	2.1829
12.6135	1.9883
12.432	1.8955
12.2557	2.2976
12.0843	2.7612
11.9176	3.1467
11.7555	3.4651
11.5977	3.6604
11.444	3.8008
11.2944	4.082
11.1487	4.323
11.0067	4.5044
10.8682	4.6174
10.7332	4.6423
10.6015	4.5898
10.473	4.5217
10.3476	4.4866
10.2251	4.4265
10.1056	4.395
9.98873	4.4536
9.87458	4.6365
9.763	4.9575
9.65392	5.2727
9.54724	5.4953
9.44291	5.6677
9.34082	5.8169
9.24091	5.9104
9.14312	5.7644
9.04739	5.4116
8.95363	5.0154
8.8618	4.6919
8.77183	4.4683
8.68368	4.4582
8.59727	4.6081
8.51257	4.8506
8.42951	5.0957
8.34807	4.9399
8.26819	4.2515
8.18981	3.3508
8.11292	2.4534
8.03745	1.5923
7.96337	0.9758
7.89064	0.6609
7.81924	0.5007
7.74911	0.4944
7.68023	0.5784
7.61256	0.7285
7.54608	0.8984
7.48074	1.0901
7.41653	1.2854
7.35341	1.4888
7.29136	1.7014
7.23034	1.9138
7.17033	2.1172
7.11132	2.293
7.05327	2.4563
6.99616	2.6121
6.93996	2.7842
6.88467	2.9424
6.83024	3.0962
6.77667	3.2771
6.72393	3.4463
6.67201	3.5979
6.62089	3.7563
6.57054	3.8896
6.52095	4.0239
6.4721	4.1045
6.42398	4.1177
6.37657	4.0605
6.32986	3.8911
6.28382	3.5796
6.23845	3.0732
6.19373	2.3918
6.14965	1.8843
6.10619	1.7043
6.06334	1.699
6.02109	1.835
5.97942	2.1221
5.93832	2.6072
5.89778	3.2712
5.8578	4.0295
5.81835	4.6958
5.77943	5.209
5.74103	5.5539
5.70314	5.7803
5.66574	5.9304
5.62883	6.0315
5.5924	6.1306
5.55644	6.249
5.52093	6.4228
5.48588	6.6211
5.45127	6.8572
5.41709	7.0925
5.38334	7.3235
5.35	7.4953
5.31708	7.6396
5.28456	7.7475
5.25243	7.8374
5.2207	7.9314
5.18934	8.0288
5.15836	8.1377
5.12775	8.2798
5.09749	8.4411
5.0676	8.6052
5.03805	8.7898
5.00884	8.9663
4.97998	9.1582
4.95144	9.32
4.92322	9.4663
4.89533	9.5788
4.86775	9.6802
4.84048	9.7802
4.81351	9.8613
4.78684	9.9682
4.76047	10.0512
4.73439	10.1325
4.70859	10.2185
4.68306	10.2942
4.65782	10.3633
4.63284	10.4485
4.60814	10.5222
4.58369	10.6191
4.5595	10.7192
4.53557	10.8188
4.51188	10.9287
4.48845	11.0381
4.46525	11.1657
4.44229	11.2871
4.41957	11.4145
4.39708	11.5288
4.37481	11.6692
4.35277	11.8137
4.33096	11.958
4.30935	12.0964
4.28797	12.2487
4.26679	12.4089
4.24583	12.5747
4.22506	12.7666
4.2045	12.9331
4.18414	13.1045
4.16398	13.2641
4.14401	13.4267
4.12423	13.5957
4.10464	13.7539
4.08523	13.9094
4.066	14.0593
4.04696	14.2055
4.02809	14.3161
4.0094	14.416
3.99088	14.497
3.97253	14.5647
3.95435	14.6342
3.93634	14.6838
3.91848	14.7319
3.90079	14.7495
3.88326	14.7458
3.86589	14.7507
3.84867	14.7343
3.8316	14.7185
3.81468	14.6784
3.79791	14.6347
3.78129	14.5888
3.76482	14.5256
3.74848	14.4599
3.73229	14.3715
3.71624	14.2876
3.70032	14.1994
3.68454	14.0852
3.6689	13.9756
3.65338	13.8496
3.638	13.7273
3.62275	13.6057
3.60762	13.4665
3.59262	13.3049
3.57775	13.1443
3.56299	12.969
3.54836	12.7881
3.53385	12.5752
3.51945	12.3347
3.50517	12.0146
3.49101	11.8706
3.47696	11.7077
3.46303	11.5464
3.4492	11.31
3.43549	11.0234
3.42188	10.7031
3.40838	10.4668
3.39499	10.313
3.38171	10.0649
3.36852	9.8462
3.35544	9.657
3.34246	9.3999
3.32958	9.145
3.3168	8.8672
3.30411	8.5971
3.29153	8.3335
3.27903	8.0429
3.26664	7.7666
3.25433	7.4971
3.24212	7.2253
3.23	6.948
3.21797	6.6741
3.20603	6.4121
3.19418	6.1504
3.18241	5.8821
3.17074	5.6286
3.15914	5.3799
3.14763	5.1345
3.13621	4.8874
3.12487	4.6575
3.11361	4.4497
3.10243	4.2705
3.09133	4.1155
3.0803	3.9836
3.06936	3.9043
3.0585	3.8437
3.04771	3.7881
3.037	3.7436
3.02636	3.6841
3.0158	3.6162
3.00531	3.5237
2.99489	3.4243
2.98454	3.3191
2.97427	3.2009
2.96407	3.0872
2.95393	3.0076
2.94387	2.9309
2.93387	2.8618
2.92394	2.8127
2.91408	2.7632
2.90429	2.7314
2.89456	2.7041
2.88489	2.71
2.87529	2.698
2.86576	2.6995
2.85628	2.6748
2.84687	2.699
2.83752	2.6943
2.82823	2.676
2.81901	2.6601
2.80984	2.6606
2.80073	2.654
2.79168	2.6389
2.78269	2.6296
2.77376	2.6011
2.76488	2.6025
2.75606	2.6975
2.7473	2.9482
2.73859	3.3789
2.72994	4.1164
2.72134	5.1877
2.7128	6.5285
2.70431	7.8955
2.69587	9.1135
2.68748	10.0835
2.67915	10.7995
2.67087	11.3569
2.66264	12.0866
2.65446	12.488
2.64633	12.7917
2.63825	13.0168
2.63021	13.1838
2.62223	13.3886
2.6143	13.4934
2.60641	13.5561
2.59857	13.667
2.59078	13.7114
2.58304	13.7407
2.57534	13.801
2.56768	13.8051
2.56008	13.8415
2.55251	13.8747
2.54499	13.9358
2.53752	13.9885
2.53009	14.0332
2.5227	14.1181
2.51536	14.2058
2.50806	14.3103
2.5008	14.4006
2.49358	14.497
2.4864	14.6086
2.47927	14.7387
2.47218	14.8567
2.46512	14.9814
2.45811	15.1142
2.45114	15.2199
2.4442	15.3786
2.43731	15.5026
2.43045	15.653
2.42363	15.7851
2.41685	15.9604
2.41011	16.082
2.40341	16.1962
2.39674	16.3122
2.39011	16.4406
2.38352	16.5703
2.37696	16.7036
2.37044	16.7905
2.36395	16.8852
2.35751	17.0156
2.35109	17.1218
2.34471	17.2114
2.33836	17.2885
2.33205	17.3303
2.32578	17.4135
2.31953	17.4431
2.31332	17.5253
2.30714	17.5229
2.301	17.5918
2.29489	17.6342
2.28881	17.697
2.28276	17.7622
2.27675	17.8203
2.27076	17.854
2.26481	17.8698
2.25889	17.9165
2.253	17.8955
2.24714	17.9047
2.24131	17.9169
2.23551	17.9697
2.22974	18.0009
2.224	17.988
2.21829	18.0459
2.21261	18.0424
2.20696	18.0795
2.20134	18.1376
2.19574	18.187
2.19018	18.1914
2.18464	18.2426
2.17913	18.2758
2.17365	18.2841
2.16819	18.3549
2.16277	18.3852
2.15737	18.4072
2.15199	18.3847
2.14665	18.3598
2.14133	18.352
2.13603	18.3916
2.13077	18.416
2.12552	18.3972
2.12031	18.3576
2.11512	18.3964
2.10995	18.3828
2.10481	18.3693
2.0997	18.3772
2.09461	18.3774
2.08954	18.3972
2.0845	18.3833
2.07948	18.322
