Name: Sea Foam
Type: Water
Class: Sea Water
Particle Size: Liquid
Owner: Dept. of Earth and Planetary Science, John Hopkins University
Wavelength Range: IR
Origin: JHU IR Spectroscopy Lab. Original filename FOAM
Description: Sea foam water.
Measurement: Directional (10 Degree) Hemispherical Reflectance
X Units: Wavelength (micrometers)
Y Units: Reflectance (percent)
wavelength	value
14.011	3.2236
13.788	3.0439
13.571	2.7976
13.361	2.6743
13.158	2.4211
12.96	2.3362
12.769	2.0735
12.583	1.8618
12.402	1.637
12.227	1.4949
12.056	1.3484
11.89	1.2744
11.729	1.0486
11.572	1.0063
11.419	0.9744
11.27	0.9248
11.125	0.926
10.983	0.8633
10.846	0.8928
10.711	0.9614
10.58	1.0359
10.452	1.0525
10.327	1.0928
10.205	1.1201
10.086	1.2261
9.97	1.2393
9.856	1.3003
9.745	1.4036
9.636	1.4265
9.53	1.3953
9.426	1.4617
9.324	1.561
9.224	1.5342
9.127	1.5957
9.032	1.5662
8.938	1.5911
8.847	1.6384
8.757	1.6709
8.669	1.6919
8.583	1.6904
8.499	1.7324
8.416	1.7581
8.335	1.8101
8.255	1.7927
8.177	1.7915
8.1	1.8271
8.025	1.832
7.951	1.8596
7.879	1.8957
7.807	1.8926
7.738	1.9023
7.669	1.917
7.601	1.9111
7.535	1.9456
7.47	1.9487
7.406	1.9285
7.343	1.9141
7.281	1.9556
7.22	2.0352
7.16	1.9531
7.102	2.0671
7.044	1.9033
6.987	2.0903
6.931	2.1445
6.876	2.0037
6.821	2.0693
6.768	2.1179
6.715	2.0417
6.663	2.1746
6.612	2.1443
6.562	2.1003
6.513	2.2246
6.464	2.2783
6.416	1.7866
6.369	2.2112
6.322	2.4436
6.276	2.5347
6.231	2.5325
6.186	2.2871
6.142	2.3657
6.099	2.1873
6.056	1.7214
6.014	1.6987
5.973	1.5227
5.932	1.3789
5.891	1.3286
5.851	1.5305
5.812	1.5686
5.773	1.5613
5.735	1.7097
5.697	1.7771
5.66	1.8498
5.623	1.9311
5.586	1.9751
5.55	1.9817
5.515	2.0815
5.48	2.0791
5.446	2.167
5.411	2.1824
5.378	2.2615
2.201	5.339
2.315	5.3062
2.311	5.2738
2.308	5.2418
2.273	5.2102
2.357	5.179
5.148	2.3437
5.118	2.374
5.087	2.4082
5.058	2.3552
5.028	2.408
4.999	2.4175
4.97	4.9657
2.423	4.9373
2.402	4.9092
2.402	4.8815
2.413	4.8541
2.42	4.827
2.425	4.8001
2.382	4.7736
2.426	4.7474
2.391	4.7215
2.414	4.6958
2.421	4.6704
2.446	4.6453
2.425	4.6205
2.441	4.5959
2.424	4.5716
2.466	4.5475
2.433	4.5237
2.474	4.5001
2.455	4.4768
2.503	4.4537
2.53	4.4309
2.523	4.4083
2.531	4.3859
2.536	4.3638
2.576	4.3418
2.57	4.3201
2.595	4.2986
2.572	4.2774
2.629	4.2563
2.65	4.2354
2.7	4.2148
2.704	4.1943
2.7	4.174
2.763	4.154
2.829	4.1341
2.841	4.1144
2.879	4.0949
2.878	4.0756
2.893	4.0565
2.939	4.0375
2.978	4.0187
3.021	4.0001
3.013	3.9817
3.963	3.0793
3.945	3.1589
3.927	3.1912
3.91	3.2178
3.892	3.282
3.875	3.3052
3.339	3.8544
3.368	3.8373
3.393	3.8203
3.382	3.8035
3.439	3.7868
3.465	3.7703
3.754	3.4167
3.738	3.4219
3.722	3.4382
3.706	3.3987
3.69	3.3989
3.674	3.3618
3.659	3.3787
3.643	3.365
3.628	3.3608
3.613	3.3435
3.598	3.3093
3.583	3.3242
3.568	3.3369
3.553	3.3008
3.539	3.2827
3.524	3.3162
3.51	3.3423
3.496	3.3159
3.482	3.3235
3.468	3.3557
3.454	3.3718
3.44	3.3972
3.426	3.4221
3.413	3.4668
3.399	3.4712
3.386	3.4792
3.373	3.512
3.36	3.509
3.347	3.5837
3.334	3.633
3.321	3.6565
3.308	3.6457
3.296	3.7012
3.283	3.7583
3.271	3.7942
3.258	3.8183
3.246	3.8364
3.234	3.8821
3.222	3.9451
3.21	3.9546
3.198	4.0364
3.186	4.0571
3.175	4.1186
4.11	3.1611
4.166	3.1495
4.163	3.1381
4.11	3.1268
4.193	3.1155
4.122	3.1043
3.093	4.0644
3.082	4.0764
3.071	3.9602
3.06	3.9433
3.05	3.8306
3.039	3.7969
3.028	3.7764
3.018	3.7751
3.007	3.6792
2.997	3.6536
2.986	3.5947
2.976	3.5535
2.966	3.4348
2.956	3.2568
2.946	3.2231
2.936	3.021
2.926	2.8755
2.916	2.6924
2.906	2.4009
2.896	2.2732
2.887	2.1016
2.877	1.9641
2.867	1.7873
2.858	1.5769
2.848	1.4712
2.839	1.3091
2.83	1.1926
2.821	1.0542
2.811	1.0051
2.802	0.8752
2.793	0.8064
2.784	0.7825
2.775	0.7324
2.766	0.6663
2.758	0.7217
2.749	0.6763
2.74	0.5679
2.731	0.7783
2.723	0.7893
2.714	0.9365
2.706	0.9927
2.697	1.0417
2.689	1.1624
2.681	1.2373
2.672	1.2961
2.664	1.28
2.656	1.5413
2.648	1.5901
2.64	1.6084
2.632	1.5371
2.624	1.7175
2.616	1.6538
2.608	1.7244
2.6	1.8503
2.592	1.8623
2.584	1.7822
2.577	1.8784
2.569	1.9282
2.561	1.9492
2.554	2.0295
2.546	2.0969
2.539	2.124
2.531	2.5301
2.182	2.5227
2.229	2.5154
2.223	2.5081
2.24	2.5008
2.248	2.4936
2.343	2.4864
2.479	2.3833
2.472	2.4719
2.465	2.543
2.458	2.5757
2.451	2.6462
2.444	2.7598
2.437	2.7839
2.43	2.8535
2.424	2.9993
2.417	3.03
2.41	3.1277
2.403	3.2327
2.397	3.3552
2.39	3.4282
2.384	3.5283
2.377	3.623
2.37	3.7288
2.364	3.8882
2.358	4.0141
2.351	4.1789
2.345	4.2676
2.338	4.365
2.332	4.5825
2.326	4.6682
2.32	4.843
2.313	5.0713
2.307	5.185
2.301	5.3872
2.295	5.4119
2.289	5.6006
2.283	5.737
2.277	5.9333
2.271	6.0051
2.265	6.1853
2.259	6.2505
2.253	6.3594
2.247	2.2462
6.569	2.2403
6.611	2.2345
6.574	2.2288
6.646	2.2231
6.766	2.2173
6.805	2.2117
2.206	6.7588
2.2	6.7143
2.195	6.759
2.189	6.6477
2.184	6.6225
2.178	6.6579
6.507	2.1718
6.507	2.1664
6.32	2.161
6.32	2.1556
6.35	2.1502
6.072	2.1449
2.14	6.2258
2.134	5.926
2.129	5.8098
2.124	5.6987
2.119	5.5366
2.113	5.6592
2.108	5.3484
2.103	5.251
2.098	5.1567
2.093	4.9487
2.088	4.8774
2.083	4.5813
