Name: Chrysotile Mg3Si2O5(OH)4
Type: Mineral
Class: Silicates
Subclass: Phyllosilicates (sheet silicates) (Serpentine/Kaplin Group)
Particle Size: Fine  (less than 2 Micrometers)
Sample No.: chrysotile.1
Owner: JHU
Wavelength Range: IR
Origin: Smithsonian NMNH 91197; Sample from Kaapsche Hoop,
Description: The hand sample was fibrous, asbestiform. The sample
Measurement: Transmission
X Units: Wavelength (micrometers)
Y Units: Transmittance (percent)
wavelength	value
25.0442	45.016
24.3388	50.5524
23.6719	50.4347
23.0407	26.3403
22.4422	45.6786
21.8741	51.4901
21.334	53.5826
20.8199	56.6051
20.33	62.6158
19.8627	69.5281
19.4163	75.9966
18.9896	77.7376
18.5812	71.939
18.19	63.732
17.815	62.6734
17.4551	62.4957
17.1094	59.443
16.7772	54.5589
16.4576	51.5751
16.15	55.297
15.8537	57.9935
15.568	60.8651
15.2925	61.4657
15.0265	65.7916
14.7697	72.2586
14.5214	76.7713
14.2814	80.7749
14.0492	83.1678
13.8244	84.7967
13.6067	86.3799
13.3957	87.6985
13.1912	88.4143
12.9929	89.6001
12.8004	90.2188
12.6135	91.1475
12.432	91.8101
12.2557	92.1975
12.0843	92.8008
11.9176	93.1502
11.7555	92.8826
11.5977	92.6011
11.444	91.8421
11.2944	90.488
11.1487	87.9844
11.0067	83.8582
10.8682	76.3992
10.7332	64.3123
10.6015	49.6403
10.473	38.5243
10.3476	37.2104
10.2251	41.3161
10.1056	45.7692
9.98873	48.0409
9.87458	44.5309
9.763	45.5931
9.65392	52.285
9.54724	59.4347
9.44291	62.0977
9.34082	55.3275
9.24091	47.8329
9.14312	49.4552
9.04739	59.3802
8.95363	68.9061
8.8618	73.6805
8.77183	76.2442
8.68368	78.0459
8.59727	79.3921
8.51257	80.5467
8.42951	81.5191
8.34807	82.4654
8.26819	83.4541
8.18981	84.6582
8.11292	85.8775
8.03745	86.9002
7.96337	87.5552
7.89064	88.0774
7.81924	88.657
7.74911	88.9688
7.68023	89.2058
7.61256	89.4331
7.54608	89.7442
7.48074	89.8928
7.41653	90.0962
7.35341	90.2427
7.29136	90.2395
7.23034	90.1694
7.17033	90.7478
7.11132	90.9168
7.05327	90.8789
6.99616	90.9714
6.93996	91.0488
6.88467	90.9053
6.83024	90.844
6.77667	91.0581
6.72393	91.3543
6.67201	91.6106
6.62089	91.7681
6.57054	91.8823
6.52095	91.8086
6.4721	91.7112
6.42398	91.5598
6.37657	91.3059
6.32986	91.0391
6.28382	90.7605
6.23845	90.2922
6.19373	89.6629
6.14965	89.2073
6.10619	88.8108
6.06334	89.0962
6.02109	89.7012
5.97942	90.28
5.93832	90.8416
5.89778	91.4802
5.8578	91.9209
5.81835	92.1433
5.77943	92.4028
5.74103	92.7263
5.70314	92.9011
5.66574	92.9607
5.62883	93.0615
5.5924	93.1611
5.55644	93.1921
5.52093	93.2712
5.48588	93.3345
5.45127	93.4229
5.41709	93.4216
5.38334	93.4863
5.35	93.5095
5.31708	93.5984
5.28456	93.6704
5.25243	93.7754
5.2207	93.7942
5.18934	93.853
5.15836	93.9348
5.12775	93.9053
5.09749	93.8723
5.0676	93.8994
5.03805	93.8601
5.00884	93.8674
4.97998	93.8569
4.95144	93.9375
4.92322	93.915
4.89533	93.8599
4.86775	93.9385
4.84048	93.9221
4.81351	93.9507
4.78684	94.0081
4.76047	93.9907
4.73439	93.9658
4.70859	93.9495
4.68306	94.0188
4.65782	94.0503
4.63284	94.0647
4.60814	94.1179
4.58369	94.0579
4.5595	94.0957
4.53557	94.0938
4.51188	94.0469
4.48845	94.0596
4.46525	94.032
4.44229	94.0469
4.41957	93.9724
4.39708	94.0149
4.37481	93.971
4.35277	94.0076
4.33096	94.0281
4.30935	94.0178
4.28797	93.9968
4.26679	94.0112
4.24583	93.98
4.22506	93.9985
4.2045	94.019
4.18414	94.0447
4.16398	94.0447
4.14401	94.0271
4.12423	94.011
4.10464	94.032
4.08523	94.0652
4.066	93.9902
4.04696	94.0747
4.02809	94.0549
4.0094	94.009
3.99088	94.0005
3.97253	93.9883
3.95435	93.9517
3.93634	93.9932
3.91848	94.0195
3.90079	94.062
3.88326	93.9834
3.86589	93.9585
3.84867	93.9751
3.8316	93.9243
3.81468	93.9153
3.79791	93.9368
3.78129	93.8882
3.76482	93.8674
3.74848	93.834
3.73229	93.8284
3.71624	93.8425
3.70032	93.6877
3.68454	93.7556
3.6689	93.6856
3.65338	93.6238
3.638	93.6834
3.62275	93.6121
3.60762	93.5803
3.59262	93.573
3.57775	93.5232
3.56299	93.491
3.54836	93.4214
3.53385	93.344
3.51945	93.1199
3.50517	92.5935
3.49101	92.7354
3.47696	92.8057
3.46303	92.7415
3.4492	92.5261
3.43549	92.3677
3.42188	91.5811
3.40838	91.5715
3.39499	92.1272
3.38171	92.0781
3.36852	92.1707
3.35544	92.323
3.34246	92.3318
3.32958	92.2398
3.3168	92.1697
3.30411	92.1729
3.29153	92.0745
3.27903	91.9126
3.26664	91.7808
3.25433	91.7205
3.24212	91.4824
3.23	91.4456
3.21797	91.2969
3.20603	91.0623
3.19418	90.7422
3.18241	90.4529
3.17074	90.2432
3.15914	89.8999
3.14763	89.5872
3.13621	89.207
3.12487	88.8767
3.11361	88.6043
3.10243	88.2786
3.09133	87.8784
3.0803	87.6431
3.06936	87.5684
3.0585	87.3682
3.04771	87.0835
3.037	86.7761
3.02636	86.305
3.0158	85.9275
3.00531	85.5445
2.99489	85.2078
2.98454	85.0313
2.97427	84.5908
2.96407	84.2019
2.95393	83.8325
2.94387	83.8382
2.93387	83.8035
2.92394	83.8189
2.91408	83.9036
2.90429	84.1248
2.89456	84.4331
2.88489	84.7617
2.87529	84.972
2.86576	85.2652
2.85628	85.8023
2.84687	86.1428
2.83752	86.3123
2.82823	86.4431
2.81901	86.5254
2.80984	86.6123
2.80073	86.7481
2.79168	86.8213
2.78269	87.0252
2.77376	86.572
2.76488	85.742
2.75606	83.1848
2.7473	76.5691
2.73859	76.9405
2.72994	79.5201
2.72134	72.5176
2.7128	58.0094
2.70431	60.6913
2.69587	79.9864
2.68748	86.1646
2.67915	87.7349
2.67087	88.8621
2.66264	89.3162
2.65446	89.6487
2.64633	89.8369
2.63825	90.1311
2.63021	90.2693
2.62223	90.3528
2.6143	90.5159
2.60641	90.4309
2.59857	90.5689
2.59078	90.7595
2.58304	90.7898
2.57534	90.6235
2.56768	90.6629
2.56008	90.7744
2.55251	90.6489
2.54499	90.8076
2.53752	90.9453
2.53009	90.7783
2.5227	90.7544
2.51536	90.7241
2.50806	90.7544
2.5008	90.906
2.49358	91.0188
2.4864	90.9675
2.47927	90.8989
2.47218	90.9902
2.46512	90.885
2.45811	90.8919
2.45114	90.7988
2.4442	90.7656
2.43731	90.762
2.43045	90.9187
2.42363	90.7783
2.41685	90.7368
2.41011	91.022
2.40341	90.9507
2.39674	90.6541
2.39011	90.7229
2.38352	90.9609
2.37696	90.8897
2.37044	90.9255
2.36395	90.8291
2.35751	90.8316
2.35109	90.7149
2.34471	90.6182
2.33836	90.4141
2.33205	90.4031
2.32578	90.459
2.31953	90.6475
2.31332	90.8179
2.30714	90.9358
2.301	90.6536
2.29489	90.5493
2.28881	90.8377
2.28276	90.8274
2.27675	90.5691
2.27076	90.6568
2.26481	90.6047
2.25889	90.636
2.253	90.8108
2.24714	90.551
2.24131	90.5974
2.23551	90.5586
2.22974	90.5894
2.224	90.6856
2.21829	90.4346
2.21261	90.7764
2.20696	90.6809
2.20134	90.4607
2.19574	90.429
2.19018	90.5881
2.18464	90.7217
2.17913	90.6021
2.17365	90.5635
2.16819	90.7476
2.16277	90.9392
2.15737	90.6709
2.15199	90.186
2.14665	90.5637
2.14133	90.4204
2.13603	89.9898
2.13077	90.6057
2.12552	90.4934
2.12031	90.0728
2.11512	90.4829
2.10995	90.4368
2.10481	90.4524
2.0997	90.6621
2.09461	90.283
2.08954	90.815
2.0845	90.9441
2.07948	90.3318
