Name: Olivine (Fo18) (Fe+2,Mg)2SiO4
Type: Mineral
Class: Silicates
Subclass: Nesosilicates (Isolated tetrahedra); (Olivine Group)
Particle Size: Fine  (Less than 2  Micrometers)
Sample No.: olivine.2
Owner: JHU
Wavelength Range: IR
Origin: Kiglapait Intrusion, Labrador via Trude King #KI3377
Description: Initially, the specimen was contaminated with pyroxene,
Measurement: Transmission
X Units: Wavelength (micrometers)
Y Units: Transmittance (percent)
wavelength	value
25.0442	51.6561
24.3388	48.5936
23.6719	52.4608
23.0407	56.367
22.4422	49.6376
21.8741	39.2831
21.334	22.8642
20.8199	15.957
20.33	19.1816
19.8627	20.5673
19.4163	20.6411
18.9896	29.8271
18.5812	38.3656
18.19	37.4638
17.815	28.2831
17.4551	27.3193
17.1094	36.6781
16.7772	52.5965
16.4576	66.1414
16.15	75.073
15.8537	79.91
15.568	82.3001
15.2925	83.909
15.0265	84.2547
14.7697	83.4295
14.5214	82.5799
14.2814	81.2286
14.0492	79.461
13.8244	76.5662
13.6067	73.377
13.3957	69.3983
13.1912	64.867
12.9929	59.4825
12.8004	53.0782
12.6135	45.6544
12.432	36.7255
12.2557	26.121
12.0843	13.8693
11.9176	20.5471
11.7555	11.4221
11.5977	5.8877
11.444	3.5295
11.2944	4.5723
11.1487	6.3476
11.0067	8.5801
10.8682	9.3535
10.7332	17.9804
10.6015	13.4282
10.473	9.5571
10.3476	11.6391
10.2251	15.5144
10.1056	22.2968
9.98873	30.9228
9.87458	39.6984
9.763	47.6141
9.65392	53.974
9.54724	59.0628
9.44291	63.5916
9.34082	67.3118
9.24091	69.9808
9.14312	72.8643
9.04739	76.4466
8.95363	79.427
8.8618	81.9295
8.77183	83.8855
8.68368	85.6507
8.59727	87.2742
8.51257	88.8494
8.42951	90.4758
8.34807	91.9021
8.26819	93.0862
8.18981	93.9417
8.11292	94.4973
8.03745	94.8157
7.96337	95.0476
7.89064	95.1648
7.81924	95.1101
7.74911	95.116
7.68023	95.1978
7.61256	95.2229
7.54608	95.1946
7.48074	95.1389
7.41653	94.981
7.35341	94.7429
7.29136	94.5291
7.23034	94.0549
7.17033	93.7278
7.11132	93.2922
7.05327	92.8879
6.99616	92.5916
6.93996	92.2988
6.88467	92.117
6.83024	92.0628
6.77667	91.8713
6.72393	91.7288
6.67201	91.5017
6.62089	91.2986
6.57054	90.9329
6.52095	90.5903
6.4721	90.0779
6.42398	89.4812
6.37657	89.0855
6.32986	88.3872
6.28382	87.6931
6.23845	86.6897
6.19373	85.5462
6.14965	84.6682
6.10619	84.0025
6.06334	84.2996
6.02109	84.5994
5.97942	84.6253
5.93832	84.8592
5.89778	84.9597
5.8578	84.7928
5.81835	84.2635
5.77943	83.7459
5.74103	83.2039
5.70314	82.9085
5.66574	82.8245
5.62883	82.6863
5.5924	82.3997
5.55644	82.1612
5.52093	81.9527
5.48588	81.7249
5.45127	81.5562
5.41709	81.2146
5.38334	80.9388
5.35	80.7454
5.31708	80.4573
5.28456	80.2771
5.25243	79.9676
5.2207	79.678
5.18934	79.3626
5.15836	79.0911
5.12775	78.8226
5.09749	78.5213
5.0676	78.2801
5.03805	77.9974
5.00884	77.7205
4.97998	77.4417
4.95144	77.1375
4.92322	76.8504
4.89533	76.5469
4.86775	76.221
4.84048	75.8931
4.81351	75.6119
4.78684	75.3086
4.76047	75.0425
4.73439	74.7076
4.70859	74.378
4.68306	74.106
4.65782	73.8086
4.63284	73.5003
4.60814	73.2215
4.58369	72.9236
4.5595	72.5931
4.53557	72.2784
4.51188	71.9412
4.48845	71.6661
4.46525	71.335
4.44229	71.0526
4.41957	70.7308
4.39708	70.4747
4.37481	70.1541
4.35277	69.8109
4.33096	69.5049
4.30935	69.231
4.28797	68.8807
4.26679	68.6136
4.24583	68.3721
4.22506	68.014
4.2045	67.7161
4.18414	67.4554
4.16398	67.1649
4.14401	66.8477
4.12423	66.5528
4.10464	66.2733
4.08523	65.9808
4.066	65.66
4.04696	65.3577
4.02809	65.0645
4.0094	64.7796
3.99088	64.4144
3.97253	64.1883
3.95435	63.8421
3.93634	63.5811
3.91848	63.241
3.90079	62.9891
3.88326	62.6702
3.86589	62.3592
3.84867	62.0804
3.8316	61.8048
3.81468	61.536
3.79791	61.2208
3.78129	60.9666
3.76482	60.6214
3.74848	60.2757
3.73229	60.0831
3.71624	59.7484
3.70032	59.5714
3.68454	59.1524
3.6689	58.9581
3.65338	58.5929
3.638	58.3504
3.62275	58.0069
3.60762	57.7328
3.59262	57.4835
3.57775	57.1808
3.56299	56.8709
3.54836	56.6183
3.53385	56.3006
3.51945	56.0167
3.50517	55.7071
3.49101	55.492
3.47696	55.2218
3.46303	54.9505
3.4492	54.5773
3.43549	54.2914
3.42188	53.9305
3.40838	53.7081
3.39499	53.5301
3.38171	53.2208
3.36852	53.0079
3.35544	52.6981
3.34246	52.5023
3.32958	52.2186
3.3168	51.9833
3.30411	51.6622
3.29153	51.4064
3.27903	51.118
3.26664	50.839
3.25433	50.6034
3.24212	50.3085
3.23	49.995
3.21797	49.7635
3.20603	49.4994
3.19418	49.2191
3.18241	48.8983
3.17074	48.6498
3.15914	48.3724
3.14763	48.1097
3.13621	47.6537
3.12487	47.3177
3.11361	47.0917
3.10243	46.7528
3.09133	46.472
3.0803	46.2953
3.06936	45.9237
3.0585	45.6864
3.04771	45.4139
3.037	45.1386
3.02636	44.7377
3.0158	44.4677
3.00531	43.9813
2.99489	43.6581
2.98454	43.2518
2.97427	42.7304
2.96407	42.3578
2.95393	41.8676
2.94387	41.539
2.93387	41.2772
2.92394	40.9061
2.91408	40.7128
2.90429	40.5976
2.89456	40.5297
2.88489	40.5355
2.87529	40.5121
2.86576	40.6151
2.85628	40.5766
2.84687	40.7167
2.83752	40.7489
2.82823	40.6757
2.81901	40.7518
2.80984	40.7518
2.80073	40.8534
2.79168	40.9677
2.78269	41.1132
2.77376	41.3109
2.76488	41.3944
2.75606	41.4188
2.7473	41.7196
2.73859	41.6991
2.72994	41.7724
2.72134	41.7406
2.7128	41.5922
2.70431	41.3934
2.69587	41.1859
2.68748	41.0805
2.67915	41.0023
2.67087	40.8261
2.66264	40.641
2.65446	40.5292
2.64633	40.3026
2.63825	40.2152
2.63021	40.08
2.62223	39.9433
2.6143	39.8075
2.60641	39.58
2.59857	39.4716
2.59078	39.3173
2.58304	39.1884
2.57534	39.0233
2.56768	38.8124
2.56008	38.7089
2.55251	38.5546
2.54499	38.4345
2.53752	38.2646
2.53009	38.1718
2.5227	38.1259
2.51536	37.9931
2.50806	37.8788
2.5008	37.7196
2.49358	37.5761
2.4864	37.4511
2.47927	37.3144
2.47218	37.1024
2.46512	36.9687
2.45811	36.7655
2.45114	36.6952
2.4442	36.6024
2.43731	36.5312
2.43045	36.4179
2.42363	36.2235
2.41685	36.1132
2.41011	35.9569
2.40341	36.0595
2.39674	35.8456
2.39011	35.7314
2.38352	35.5282
2.37696	35.3593
2.37044	35.3212
2.36395	35.3671
2.35751	35.1679
2.35109	34.9843
2.34471	34.9267
2.33836	34.6845
2.33205	34.7314
2.32578	34.3515
2.31953	34.4081
2.31332	34.4189
2.30714	34.246
2.301	34.161
2.29489	33.9335
2.28881	33.9179
2.28276	33.8446
2.27675	33.7704
2.27076	33.5819
2.26481	33.5155
2.25889	33.4237
2.253	33.4081
2.24714	33.2226
2.24131	32.8749
2.23551	33.0761
2.22974	32.8944
2.224	32.9901
2.21829	32.662
2.21261	32.7753
2.20696	32.3905
2.20134	32.4218
2.19574	32.3241
2.19018	32.371
2.18464	31.9257
2.17913	32.0702
2.17365	31.8671
2.16819	31.7538
2.16277	31.8749
2.15737	31.5273
2.15199	31.621
2.14665	31.6327
2.14133	31.1562
2.13603	31.1327
2.13077	30.9843
2.12552	30.9843
2.12031	30.9921
2.11512	30.9335
2.10995	30.7773
2.10481	31.0566
2.0997	30.4491
2.09461	30.4999
2.08954	30.5077
2.0845	30.4687
2.07948	30.4784
