Name: Jadeite Na(Al,Fe+3)Si2O6
Type: Mineral
Class: Silicates
Subclass: Inosilicates (Chain Silicates); (Pyroxene Group)
Particle Size: Solid (fracture surface)
Sample No.: jadeite.1
Owner: JHU
Wavelength Range: IR
Origin: Tibet, China via the Smithsonian (sample no. NMNH B18463).
Description: The sample was a single 1 cm x 4 cm piece weighing 11.5
Measurement: Bidirectional reflectance
X Units: Wavelength (micrometers)
Y Units: Reflectance (percent)
wavelength	value
25.0442	6.2666
24.3388	5.1631
23.6719	6.1352
23.0407	7.2846
22.4422	6.5603
21.8741	8.0845
21.334	9.2114
20.8199	9.1887
20.33	7.7549
19.8627	8.2881
19.4163	9.0444
18.9896	9.7229
18.5812	10.1435
18.19	8.1047
17.815	7.9306
17.4551	9.3003
17.1094	10.6032
16.7772	10.393
16.4576	9.2112
16.15	7.5176
15.8537	5.8996
15.568	3.0911
15.2925	1.7539
15.0265	2.1494
14.7697	1.79
14.5214	1.2778
14.2814	1.4324
14.0492	1.679
13.8244	1.8713
13.6067	2.0373
13.3957	2.1804
13.1912	2.0017
12.9929	2.2087
12.8004	2.3088
12.6135	2.4062
12.432	2.5149
12.2557	2.6482
12.0843	2.8205
11.9176	3.0508
11.7555	3.4067
11.5977	3.2195
11.444	3.1643
11.2944	3.5737
11.1487	4.0063
11.0067	4.4043
10.8682	4.8191
10.7332	5.1775
10.6015	5.4465
10.473	5.7231
10.3476	5.987
10.2251	5.866
10.1056	5.9504
9.98873	6.3508
9.87458	6.8764
9.763	7.469
9.65392	8.1538
9.54724	9.372
9.44291	9.5105
9.34082	10.9614
9.24091	11.2395
9.14312	11.4101
9.04739	11.2715
8.95363	9.8562
8.8618	8.8872
8.77183	8.4265
8.68368	8.2138
8.59727	8.0671
8.51257	8.0427
8.42951	7.1799
8.34807	5.4597
8.26819	3.7842
8.18981	2.4741
8.11292	1.5059
8.03745	0.8298
7.96337	0.511
7.89064	0.5071
7.81924	0.573
7.74911	0.6436
7.68023	0.7283
7.61256	0.801
7.54608	0.8564
7.48074	0.9182
7.41653	0.9885
7.35341	1.0398
7.29136	1.0896
7.23034	1.1206
7.17033	1.1519
7.11132	1.1811
7.05327	1.2073
6.99616	1.27
6.93996	1.332
6.88467	1.4243
6.83024	1.5002
6.77667	1.5803
6.72393	1.6152
6.67201	1.6355
6.62089	1.6313
6.57054	1.6103
6.52095	1.636
6.4721	1.6687
6.42398	1.6743
6.37657	1.6943
6.32986	1.7363
6.28382	1.7815
6.23845	1.8093
6.19373	1.7698
6.14965	1.6245
6.10619	1.5969
6.06334	1.6499
6.02109	1.6377
5.97942	1.6948
5.93832	1.7725
5.89778	1.8364
5.8578	1.8389
5.81835	1.7676
5.77943	1.6553
5.74103	1.5505
5.70314	1.5442
5.66574	1.5676
5.62883	1.5915
5.5924	1.6013
5.55644	1.6619
5.52093	1.6902
5.48588	1.6916
5.45127	1.7627
5.41709	1.9709
5.38334	2.2768
5.35	2.5383
5.31708	2.7395
5.28456	2.7913
5.25243	2.8047
5.2207	2.8264
5.18934	2.8647
5.15836	2.9119
5.12775	2.8843
5.09749	2.8733
5.0676	2.9314
5.03805	2.9538
5.00884	2.9768
4.97998	3.0037
4.95144	3.0476
4.92322	3.103
4.89533	3.259
4.86775	3.5137
4.84048	3.6938
4.81351	3.7505
4.78684	3.7939
4.76047	3.9907
4.73439	4.2395
4.70859	4.3528
4.68306	4.3701
4.65782	4.3572
4.63284	4.3833
4.60814	4.5549
4.58369	4.8227
4.5595	5.2388
4.53557	5.6589
4.51188	6.0251
4.48845	6.3103
4.46525	6.4682
4.44229	6.5959
4.41957	6.7163
4.39708	6.8218
4.37481	6.8894
4.35277	6.9475
4.33096	6.9851
4.30935	7.0202
4.28797	7.05
4.26679	7.0979
4.24583	7.1264
4.22506	7.1306
4.2045	7.1592
4.18414	7.1846
4.16398	7.2073
4.14401	7.2168
4.12423	7.2419
4.10464	7.2522
4.08523	7.2756
4.066	7.2978
4.04696	7.3037
4.02809	7.3193
4.0094	7.3244
3.99088	7.3305
3.97253	7.3657
3.95435	7.407
3.93634	7.4504
3.91848	7.4953
3.90079	7.5198
3.88326	7.5412
3.86589	7.5779
3.84867	7.5928
3.8316	7.6304
3.81468	7.6633
3.79791	7.6931
3.78129	7.7178
3.76482	7.7383
3.74848	7.7451
3.73229	7.7627
3.71624	7.7815
3.70032	7.7829
3.68454	7.7961
3.6689	7.8071
3.65338	7.8193
3.638	7.841
3.62275	7.8481
3.60762	7.8657
3.59262	7.8764
3.57775	7.895
3.56299	7.8999
3.54836	7.8996
3.53385	7.8984
3.51945	7.8921
3.50517	7.896
3.49101	7.9018
3.47696	7.9219
3.46303	7.9346
3.4492	7.9311
3.43549	7.9194
3.42188	7.9026
3.40838	7.8908
3.39499	7.9089
3.38171	7.9277
3.36852	7.9355
3.35544	7.9414
3.34246	7.9604
3.32958	7.9626
3.3168	7.9682
3.30411	7.9643
3.29153	7.9538
3.27903	7.9504
3.26664	7.9472
3.25433	7.9348
3.24212	7.9277
3.23	7.9287
3.21797	7.9011
3.20603	7.8911
3.19418	7.8625
3.18241	7.8647
3.17074	7.8388
3.15914	7.813
3.14763	7.7668
3.13621	7.7312
3.12487	7.7114
3.11361	7.6523
3.10243	7.5871
3.09133	7.5202
3.0803	7.4292
3.06936	7.3581
3.0585	7.3017
3.04771	7.2685
3.037	7.2319
3.02636	7.2041
3.0158	7.166
3.00531	7.1094
2.99489	7.0703
2.98454	6.9714
2.97427	6.8664
2.96407	6.7434
2.95393	6.6179
2.94387	6.459
2.93387	6.2993
2.92394	6.1311
2.91408	5.9448
2.90429	5.74
2.89456	5.5439
2.88489	5.3874
2.87529	5.2468
2.86576	5.1269
2.85628	5.0351
2.84687	4.9319
2.83752	4.7432
2.82823	4.5342
2.81901	4.3315
2.80984	4.3835
2.80073	4.5791
2.79168	4.6191
2.78269	4.4888
2.77376	4.2776
2.76488	4.1216
2.75606	4.521
2.7473	5.5244
2.73859	6.6372
2.72994	7.3567
2.72134	7.6814
2.7128	8.0657
2.70431	8.3821
2.69587	8.5696
2.68748	8.7109
2.67915	8.7795
2.67087	8.8164
2.66264	8.9641
2.65446	9.011
2.64633	9.0556
2.63825	9.1032
2.63021	9.061
2.62223	9.1328
2.6143	9.1404
2.60641	9.1023
2.59857	9.1592
2.59078	9.1552
2.58304	9.1089
2.57534	9.1301
2.56768	9.1194
2.56008	9.0818
2.55251	9.0307
2.54499	9.0503
2.53752	9.0796
2.53009	9.0644
2.5227	9.0952
2.51536	9.1252
2.50806	9.1418
2.5008	9.1616
2.49358	9.1413
2.4864	9.1772
2.47927	9.1753
2.47218	9.2036
2.46512	9.2231
2.45811	9.2929
2.45114	9.3523
2.4442	9.3464
2.43731	9.4082
2.43045	9.4026
2.42363	9.4406
2.41685	9.4389
2.41011	9.4599
2.40341	9.4421
2.39674	9.4455
2.39011	9.4438
2.38352	9.4385
2.37696	9.4739
2.37044	9.4656
2.36395	9.4568
2.35751	9.4648
2.35109	9.4585
2.34471	9.4585
2.33836	9.4824
2.33205	9.4314
2.32578	9.438
2.31953	9.4533
2.31332	9.4321
2.30714	9.4089
2.301	9.4565
2.29489	9.4265
2.28881	9.4497
2.28276	9.4319
2.27675	9.4321
2.27076	9.4175
2.26481	9.4419
2.25889	9.4333
2.253	9.3996
2.24714	9.4155
2.24131	9.4219
2.23551	9.4524
2.22974	9.4179
2.224	9.4087
2.21829	9.4128
2.21261	9.4265
2.20696	9.4016
2.20134	9.4179
2.19574	9.4021
2.19018	9.3862
2.18464	9.4035
2.17913	9.3945
2.17365	9.4009
2.16819	9.4243
2.16277	9.4106
2.15737	9.3711
2.15199	9.3413
2.14665	9.3215
2.14133	9.3865
2.13603	9.3833
2.13077	9.3557
2.12552	9.372
2.12031	9.3628
2.11512	9.3572
2.10995	9.3833
2.10481	9.3784
2.0997	9.4433
2.09461	9.4082
2.08954	9.4316
2.0845	9.3843
2.07948	9.3752
