Name: Kaolinite Al2Si2O5(OH)4
Type: Mineral
Class: Silicates
Subclass: Phyllosilicates (Chain Silicates); (Serpentine/Kaoline Group)
Particle Size: 0-2 micrometers.  (Packed powder simulates coarse.)
Sample No.: kaolinite.3
Owner: JHU
Wavelength Range: IR
Origin: Washington Co., Georgia via Hunt and Salisbury Collection
Description: White, earthy clay. The <2 um separate is pure, well-
Measurement: Bidirectional reflectance Packed
X Units: Wavelength (micrometers)
Y Units: Reflectance (percent)
wavelength	value
25.0442	6.7217
24.3388	7.3105
23.6719	7.5176
23.0407	8.0049
22.4422	6.6445
21.8741	7.6875
21.334	9.478
20.8199	10.2929
20.33	5.7046
19.8627	6.0361
19.4163	6.7949
18.9896	8.0964
18.5812	9.7063
18.19	10.9258
17.815	11.7539
17.4551	12.4821
17.1094	12.0327
16.7772	10.9961
16.4576	9.9355
16.15	7.5327
15.8537	4.8848
15.568	4.4568
15.2925	4.1941
15.0265	4.1435
14.7697	4.404
14.5214	4.8081
14.2814	4.7815
14.0492	2.9927
13.8244	2.8628
13.6067	3.4451
13.3957	3.7585
13.1912	3.646
12.9929	3.5798
12.8004	3.8799
12.6135	3.8393
12.432	3.583
12.2557	3.9399
12.0843	4.3025
11.9176	4.5715
11.7555	4.7607
11.5977	4.9621
11.444	5.092
11.2944	5.2488
11.1487	5.4946
11.0067	6.1474
10.8682	6.2253
10.7332	5.4551
10.6015	5.4499
10.473	4.1189
10.3476	4.6059
10.2251	5.145
10.1056	5.7412
9.98873	6.6975
9.87458	7.8257
9.763	7.6216
9.65392	10.0117
9.54724	12.2077
9.44291	14.2724
9.34082	15.2551
9.24091	13.5322
9.14312	11.0014
9.04739	10.7561
8.95363	11.33
8.8618	20.3408
8.77183	20.6403
8.68368	17.2192
8.59727	13.4074
8.51257	9.5525
8.42951	5.6472
8.34807	2.8215
8.26819	1.7424
8.18981	1.6157
8.11292	1.762
8.03745	1.947
7.96337	2.144
7.89064	2.2798
7.81924	2.4311
7.74911	2.5708
7.68023	2.6448
7.61256	2.6572
7.54608	2.7073
7.48074	2.74
7.41653	2.7927
7.35341	2.8328
7.29136	2.8953
7.23034	2.9971
7.17033	3.084
7.11132	3.1555
7.05327	3.2202
6.99616	3.2971
6.93996	3.3975
6.88467	3.4509
6.83024	3.4961
6.77667	3.5864
6.72393	3.7185
6.67201	3.8215
6.62089	3.9211
6.57054	4.0122
6.52095	4.0461
6.4721	4.0893
6.42398	4.1626
6.37657	4.2073
6.32986	4.2092
6.28382	4.2004
6.23845	4.2026
6.19373	4.176
6.14965	4.1638
6.10619	4.1714
6.06334	4.1689
6.02109	4.1457
5.97942	4.1462
5.93832	4.1377
5.89778	4.1162
5.8578	4.0857
5.81835	4.061
5.77943	4.0969
5.74103	4.1968
5.70314	4.2473
5.66574	4.2778
5.62883	4.3589
5.5924	4.4084
5.55644	4.331
5.52093	4.0871
5.48588	3.8921
5.45127	4.0212
5.41709	4.1719
5.38334	4.2952
5.35	4.4245
5.31708	4.5039
5.28456	4.5137
5.25243	4.4409
5.2207	4.3618
5.18934	4.3042
5.15836	4.3235
5.12775	4.4299
5.09749	4.6741
5.0676	4.9416
5.03805	5.2187
5.00884	5.4245
4.97998	5.583
4.95144	5.7622
4.92322	5.8669
4.89533	5.9739
4.86775	6.1216
4.84048	6.2634
4.81351	6.4133
4.78684	6.5513
4.76047	6.6296
4.73439	6.6377
4.70859	6.6235
4.68306	6.6152
4.65782	6.6699
4.63284	6.8474
4.60814	7.0503
4.58369	7.2016
4.5595	7.3081
4.53557	7.3791
4.51188	7.3674
4.48845	7.3752
4.46525	7.4543
4.44229	7.5122
4.41957	7.5532
4.39708	7.592
4.37481	7.6172
4.35277	7.6455
4.33096	7.6553
4.30935	7.6582
4.28797	7.6245
4.26679	7.5408
4.24583	7.6435
4.22506	7.7048
4.2045	7.7265
4.18414	7.7241
4.16398	7.7346
4.14401	7.7319
4.12423	7.7363
4.10464	7.7517
4.08523	7.7578
4.066	7.7602
4.04696	7.7627
4.02809	7.7661
4.0094	7.7649
3.99088	7.7683
3.97253	7.7517
3.95435	7.7536
3.93634	7.7612
3.91848	7.7568
3.90079	7.7458
3.88326	7.7334
3.86589	7.7092
3.84867	7.6755
3.8316	7.6501
3.81468	7.5998
3.79791	7.5661
3.78129	7.5195
3.76482	7.4831
3.74848	7.4197
3.73229	7.3469
3.71624	7.2292
3.70032	7.0146
3.68454	7.0149
3.6689	7.1037
3.65338	7.1181
3.638	7.0981
3.62275	7.0515
3.60762	6.9907
3.59262	6.9429
3.57775	6.8808
3.56299	6.8284
3.54836	6.772
3.53385	6.7016
3.51945	6.5879
3.50517	6.4011
3.49101	6.3183
3.47696	6.2566
3.46303	6.2036
3.4492	6.1264
3.43549	6.0312
3.42188	5.9304
3.40838	5.8584
3.39499	5.8733
3.38171	5.9018
3.36852	5.9099
3.35544	5.9682
3.34246	6.0014
3.32958	6.0068
3.3168	5.9507
3.30411	5.9145
3.29153	5.8572
3.27903	5.8076
3.26664	5.7441
3.25433	5.6931
3.24212	5.6326
3.23	5.5727
3.21797	5.5024
3.20603	5.4531
3.19418	5.3816
3.18241	5.334
3.17074	5.2712
3.15914	5.2195
3.14763	5.1462
3.13621	5.06
3.12487	5.0056
3.11361	4.9492
3.10243	4.8747
3.09133	4.8262
3.0803	4.7732
3.06936	4.7248
3.0585	4.6601
3.04771	4.5964
3.037	4.5566
3.02636	4.522
3.0158	4.4746
3.00531	4.4214
2.99489	4.3303
2.98454	4.2515
2.97427	4.1672
2.96407	4.1228
2.95393	4.0576
2.94387	3.9624
2.93387	3.854
2.92394	3.688
2.91408	3.3169
2.90429	3.416
2.89456	3.4614
2.88489	3.4321
2.87529	3.3862
2.86576	3.3345
2.85628	3.2781
2.84687	3.209
2.83752	3.1675
2.82823	3.0957
2.81901	3.0342
2.80984	2.9775
2.80073	2.8867
2.79168	2.7529
2.78269	2.6089
2.77376	2.3345
2.76488	1.7476
2.75606	1.4324
2.7473	1.6597
2.73859	1.4556
2.72994	1.4453
2.72134	1.4521
2.7128	1.5239
2.70431	1.4385
2.69587	1.4805
2.68748	2.2436
2.67915	2.9951
2.67087	3.5552
2.66264	4.0276
2.65446	4.387
2.64633	4.6338
2.63825	4.8794
2.63021	5.0962
2.62223	5.2246
2.6143	5.3025
2.60641	5.3782
2.59857	5.4324
2.59078	5.4768
2.58304	5.5159
2.57534	5.5332
2.56768	5.5674
2.56008	5.6216
2.55251	5.6409
2.54499	5.6572
2.53752	5.7319
2.53009	5.7407
2.5227	5.7873
2.51536	5.8098
2.50806	5.8623
2.5008	5.9014
2.49358	5.9446
2.4864	5.959
2.47927	6.0708
2.47218	6.1616
2.46512	6.2063
2.45811	6.2231
2.45114	6.2778
2.4442	6.3459
2.43731	6.4267
2.43045	6.6064
2.42363	6.6938
2.41685	6.7519
2.41011	6.8345
2.40341	6.8215
2.39674	6.7402
2.39011	6.6233
2.38352	6.5539
2.37696	6.6543
2.37044	6.7551
2.36395	6.8237
2.35751	6.7856
2.35109	6.852
2.34471	6.9895
2.33836	7.0312
2.33205	7.0239
2.32578	6.9922
2.31953	7.0168
2.31332	7.0539
2.30714	7.1474
2.301	7.2466
2.29489	7.3008
2.28881	7.341
2.28276	7.4204
2.27675	7.4648
2.27076	7.5312
2.26481	7.5959
2.25889	7.6484
2.253	7.7021
2.24714	7.6826
2.24131	7.6831
2.23551	7.706
2.22974	7.6802
2.224	7.5766
2.21829	7.3183
2.21261	6.4565
2.20696	5.7988
2.20134	6.5703
2.19574	6.7695
2.19018	6.8384
2.18464	7.0317
2.17913	7.04
2.17365	7.0097
2.16819	6.9575
2.16277	6.9472
2.15737	7.0732
2.15199	7.2617
2.14665	7.5517
2.14133	7.8369
2.13603	8.0449
2.13077	8.1015
2.12552	8.1992
2.12031	8.2558
2.11512	8.2412
2.10995	8.2759
2.10481	8.3857
2.0997	8.4302
2.09461	8.4829
2.08954	8.4853
2.0845	8.5039
2.07948	8.5752
