Name: Olivine (Fo92) (Fe+2,Mg)2SiO4
Type: Mineral
Class: Silicates
Subclass: Nesosilicates (Isolated tetrahedra); (Olivine Group)
Particle Size: Fine  (Less than 2 Micrometers)
Sample No.: olivine.1
Owner: JHU
Wavelength Range: IR
Origin: Kiglapait Intrusion, Labrador via Trude King #KI3005
Description: Initially, the specimen was contaminated with pyroxene,
Measurement: Transmission
X Units: Wavelength (micrometers)
Y Units: Transmittance (percent)
wavelength	value
25.0442	45.6405
24.3388	45.8456
23.6719	48.9862
23.0407	48.079
22.4422	38.3944
21.8741	29.371
21.334	19.0908
20.8199	17.2929
20.33	20.5634
19.8627	20.1997
19.4163	21.2543
18.9896	28.3046
18.5812	32.7758
18.19	31.186
17.815	27.038
17.4551	29.9594
17.1094	39.5394
16.7772	51.2113
16.4576	60.0277
16.15	67.9276
15.8537	73.4339
15.568	76.1741
15.2925	77.7122
15.0265	77.4002
14.7697	75.7186
14.5214	74.1741
14.2814	71.7881
14.0492	68.6346
13.8244	64.627
13.6067	60.2618
13.3957	55.41
13.1912	50.4034
12.9929	44.993
12.8004	39.1327
12.6135	33.2431
12.432	27.2082
12.2557	21.0312
12.0843	14.6162
11.9176	19.832
11.7555	13.091
11.5977	9.0742
11.444	7.6018
11.2944	8.7336
11.1487	10.0942
11.0067	11.6269
10.8682	12.5385
10.7332	20.7687
10.6015	13.4004
10.473	13.4985
10.3476	15.6235
10.2251	19.0571
10.1056	23.9675
9.98873	29.578
9.87458	35.4386
9.763	41.0246
9.65392	45.578
9.54724	49.681
9.44291	53.9256
9.34082	57.7887
9.24091	60.515
9.14312	63.4137
9.04739	67.7711
8.95363	71.5555
8.8618	74.928
8.77183	77.5848
8.68368	79.8841
8.59727	81.9251
8.51257	83.9856
8.42951	85.9842
8.34807	87.6765
8.26819	89.1126
8.18981	90.2381
8.11292	91.0632
8.03745	91.5662
7.96337	91.8772
7.89064	92.0476
7.81924	92.1043
7.74911	92.0989
7.68023	92.1267
7.61256	92.0281
7.54608	91.8606
7.48074	91.6289
7.41653	91.3191
7.35341	90.7688
7.29136	90.2317
7.23034	89.3963
7.17033	88.8406
7.11132	88.1306
7.05327	87.5113
6.99616	87.1321
6.93996	86.801
6.88467	86.3396
6.83024	85.9939
6.77667	85.7576
6.72393	85.4773
6.67201	84.9812
6.62089	84.573
6.57054	83.9612
6.52095	83.3963
6.4721	82.6824
6.42398	82.0271
6.37657	81.4402
6.32986	80.6321
6.28382	79.837
6.23845	78.8816
6.19373	77.8738
6.14965	76.8587
6.10619	75.7796
6.06334	75.948
6.02109	76.1695
5.97942	76.0359
5.93832	75.7376
5.89778	75.4544
5.8578	75.0882
5.81835	74.3523
5.77943	73.7811
5.74103	73.3172
5.70314	73.0989
5.66574	73.013
5.62883	72.6512
5.5924	72.3548
5.55644	72.0535
5.52093	71.7398
5.48588	71.4197
5.45127	71.0775
5.41709	70.6385
5.38334	70.3231
5.35	69.942
5.31708	69.598
5.28456	69.3104
5.25243	68.9031
5.2207	68.5047
5.18934	68.1273
5.15836	67.7811
5.12775	67.4349
5.09749	67.0687
5.0676	66.7425
5.03805	66.3831
5.00884	65.9984
4.97998	65.6282
4.95144	65.2562
4.92322	64.9373
4.89533	64.5501
4.86775	64.1742
4.84048	63.827
4.81351	63.4825
4.78684	63.1446
4.76047	62.7918
4.73439	62.4452
4.70859	62.0985
4.68306	61.7765
4.65782	61.4376
4.63284	61.1121
4.60814	60.787
4.58369	60.4388
4.5595	60.0965
4.53557	59.7596
4.51188	59.4481
4.48845	59.1585
4.46525	58.7796
4.44229	58.4803
4.41957	58.1522
4.39708	57.8634
4.37481	57.5516
4.35277	57.2049
4.33096	56.8993
4.30935	56.6319
4.28797	56.2906
4.26679	56.0165
4.24583	55.7259
4.22506	55.4266
4.2045	55.131
4.18414	54.8587
4.16398	54.5782
4.14401	54.3204
4.12423	53.973
4.10464	53.7323
4.08523	53.4227
4.066	53.14
4.04696	52.8866
4.02809	52.6293
4.0094	52.3448
3.99088	52.0665
3.97253	51.7828
3.95435	51.5277
3.93634	51.2591
3.91848	50.9877
3.90079	50.7591
3.88326	50.4867
3.86589	50.2557
3.84867	50.0116
3.8316	49.7335
3.81468	49.5043
3.79791	49.2655
3.78129	49.0138
3.76482	48.7806
3.74848	48.5255
3.73229	48.264
3.71624	48.0643
3.70032	47.8051
3.68454	47.631
3.6689	47.3578
3.65338	47.1095
3.638	46.8607
3.62275	46.6483
3.60762	46.42
3.59262	46.2269
3.57775	45.9301
3.56299	45.7452
3.54836	45.5294
3.53385	45.2694
3.51945	45.0057
3.50517	44.6271
3.49101	44.5128
3.47696	44.2997
3.46303	44.1224
3.4492	43.8771
3.43549	43.5805
3.42188	43.1893
3.40838	43.0692
3.39499	43.0548
3.38171	42.7902
3.36852	42.6945
3.35544	42.5888
3.34246	42.4953
3.32958	42.3192
3.3168	42.1408
3.30411	41.9093
3.29153	41.7511
3.27903	41.5717
3.26664	41.3817
3.25433	41.1974
3.24212	41.0136
3.23	40.7977
3.21797	40.6857
3.20603	40.474
3.19418	40.2626
3.18241	40.0883
3.17074	39.975
3.15914	39.7436
3.14763	39.5297
3.13621	39.245
3.12487	39.1005
3.11361	38.9052
3.10243	38.747
3.09133	38.5609
3.0803	38.3759
3.06936	38.2021
3.0585	38.0277
3.04771	37.788
3.037	37.6708
3.02636	37.4574
3.0158	37.2714
3.00531	37.0531
2.99489	36.8095
2.98454	36.6015
2.97427	36.2934
2.96407	36.0551
2.95393	35.8183
2.94387	35.58
2.93387	35.4853
2.92394	35.2895
2.91408	35.0961
2.90429	35.1313
2.89456	35.1137
2.88489	35.1591
2.87529	35.1376
2.86576	35.1171
2.85628	35.1982
2.84687	35.2348
2.83752	35.2836
2.82823	35.2016
2.81901	35.2465
2.80984	35.2128
2.80073	35.2148
2.79168	35.3905
2.78269	35.4657
2.77376	35.4999
2.76488	35.5253
2.75606	35.602
2.7473	35.748
2.73859	35.7343
2.72994	35.871
2.72134	35.8163
2.7128	35.7401
2.70431	35.5683
2.69587	35.5219
2.68748	35.5175
2.67915	35.5141
2.67087	35.2909
2.66264	35.2694
2.65446	35.1171
2.64633	35.0429
2.63825	35.0819
2.63021	35.0058
2.62223	34.8837
2.6143	34.7763
2.60641	34.621
2.59857	34.5907
2.59078	34.58
2.58304	34.4745
2.57534	34.3446
2.56768	34.3183
2.56008	34.248
2.55251	34.1191
2.54499	34.0946
2.53752	34.0243
2.53009	33.9735
2.5227	33.8651
2.51536	33.872
2.50806	33.8349
2.5008	33.7499
2.49358	33.5995
2.4864	33.5585
2.47927	33.4901
2.47218	33.4784
2.46512	33.4267
2.45811	33.2362
2.45114	33.0741
2.4442	33.0439
2.43731	33.0917
2.43045	33.08
2.42363	32.9609
2.41685	32.7402
2.41011	32.8798
2.40341	32.8241
2.39674	32.6728
2.39011	32.6464
2.38352	32.496
2.37696	32.4784
2.37044	32.4941
2.36395	32.54
2.35751	32.454
2.35109	32.3134
2.34471	32.1835
2.33836	32.2626
2.33205	32.2587
2.32578	32.0741
2.31953	32.078
2.31332	31.8984
2.30714	31.9374
2.301	31.9306
2.29489	31.7538
2.28881	31.7538
2.28276	31.7109
2.27675	31.6532
2.27076	31.7128
2.26481	31.4687
2.25889	31.5683
2.253	31.3027
2.24714	31.4472
2.24131	31.2636
2.23551	31.2695
2.22974	31.2265
2.224	31.1425
2.21829	31.1112
2.21261	31.0429
2.20696	30.9413
2.20134	30.9237
2.19574	31.0527
2.19018	30.912
2.18464	31.0195
2.17913	30.7851
2.17365	30.6679
2.16819	30.7284
2.16277	31.121
2.15737	30.5546
2.15199	30.6171
2.14665	30.3671
2.14133	30.4394
2.13603	30.2304
2.13077	30.2831
2.12552	30.328
2.12031	30.3827
2.11512	30.1327
2.10995	30.2812
2.10481	30.2206
2.0997	30.1503
2.09461	30.0956
2.08954	29.8905
2.0845	29.9843
2.07948	29.9648
