Name: 12024.69
Type: Soil
Class: Lunar
Subclass: Maria
Particle Size: Fine
Sample No.: 12024.69
Owner: JHU
Origin: Apollo 12 landing site via the NASA Lunar Sample Repository at Johnson
Description: This sample is one of a suite of soils of similar chemistry, but
Measurement: Directional (10 degree) hemispherical reflectance
X Units: Wavelength (micrometers)
Y Units: Reflectance (percent)
wavelength	value
14.011	1.3785
13.788	1.2863
13.571	1.4171
13.361	1.5587
13.158	1.562
12.96	1.7251
12.769	1.84
12.583	2.1068
12.402	2.3331
12.227	2.5004
12.056	2.4443
11.89	2.3763
11.729	2.4383
11.572	2.5181
11.419	2.6153
11.27	2.5523
11.125	2.4583
10.983	2.4205
10.846	2.4864
10.711	2.4575
10.58	2.3169
10.452	2.2613
10.327	2.1415
10.205	2.0122
10.086	2.0059
9.97	1.9704
9.856	1.9572
9.745	1.9765
9.636	1.9319
9.53	1.9368
9.426	1.9353
9.324	1.9243
9.225	1.908
9.127	1.9034
9.032	1.7407
8.938	1.5069
8.847	1.2621
8.757	1.1434
8.669	1.0749
8.583	0.978
8.499	0.9691
8.416	0.9255
8.335	0.9186
8.255	0.9459
8.177	1.0857
8.1	1.3081
8.025	1.6675
7.951	2.2145
7.879	2.7778
7.808	3.3955
7.737	3.979
7.669	4.5875
7.601	5.1767
7.535	5.7496
7.47	6.3116
7.406	6.8689
7.343	7.366
7.281	7.8623
7.22	8.3018
7.16	8.7276
7.102	9.1396
7.044	9.4437
6.987	9.839
6.931	10.14
6.875	10.417
6.821	10.621
6.768	10.807
6.715	10.897
6.663	10.991
6.612	11.029
6.562	11.073
6.513	11.206
6.464	11.328
6.416	11.179
6.369	11.387
6.322	11.436
6.276	11.476
6.231	11.516
6.186	11.478
6.142	11.731
6.099	11.892
6.056	11.853
6.014	12.114
5.973	12.394
5.931	12.679
5.891	13.073
5.851	13.531
5.812	13.806
5.773	14.009
5.735	14.307
5.697	14.422
5.66	14.53
5.623	14.739
5.586	14.933
5.551	15.151
5.515	15.273
5.48	15.267
5.446	15.274
5.411	15.279
5.378	15.283
5.345	15.245
5.312	15.306
5.279	15.436
5.247	15.654
5.215	15.9
5.184	16.198
5.153	16.458
5.123	16.772
5.093	17.069
5.063	17.325
5.033	17.657
5.004	18.004
4.975	18.35
4.947	18.738
4.919	19.146
4.891	19.477
4.863	19.821
4.836	20.157
4.809	20.46
4.782	20.738
4.756	21.018
4.73	21.315
4.704	21.607
4.679	21.888
4.654	22.15
4.629	22.416
4.604	22.638
4.58	22.834
4.556	22.997
4.532	23.144
4.508	23.238
4.485	23.319
4.461	23.387
4.439	23.452
4.416	23.481
4.393	23.529
4.371	23.569
4.349	23.638
4.327	23.697
4.306	23.739
4.284	23.796
4.263	23.809
4.242	23.858
4.222	23.862
4.201	23.876
4.181	23.868
4.161	23.847
4.141	23.904
4.121	23.882
4.101	23.887
4.082	23.871
4.063	23.859
4.044	23.863
4.025	23.874
4.006	23.843
3.988	23.845
3.97	23.819
3.951	23.829
3.933	23.807
3.916	23.763
3.898	23.742
3.88	23.729
3.863	23.705
3.846	23.654
3.829	23.61
3.812	23.61
3.795	23.545
3.779	23.532
3.762	23.516
3.746	23.458
3.73	23.424
3.714	23.387
3.698	23.351
3.682	23.296
3.666	23.246
3.651	23.223
3.636	23.202
3.62	23.161
3.605	23.101
3.59	23.08
3.575	23.027
3.561	22.987
3.546	22.928
3.531	22.863
3.517	22.837
3.503	22.775
3.489	22.686
3.475	22.639
3.461	22.617
3.447	22.581
3.433	22.524
3.42	22.382
3.406	22.372
3.393	22.357
3.38	22.237
3.366	22.258
3.353	22.293
3.34	22.266
3.327	22.23
3.315	22.2
3.302	22.143
3.289	22.118
3.277	22.053
3.265	21.995
3.252	21.93
3.24	21.899
3.228	21.838
3.216	21.806
3.204	21.724
3.192	21.648
3.18	21.642
3.169	21.568
3.157	21.554
3.146	21.45
3.134	21.448
3.123	21.398
3.112	21.366
3.101	21.318
3.09	21.255
3.079	21.216
3.067	21.171
3.057	21.058
3.046	21.08
3.035	21.052
3.025	20.997
3.014	20.889
3.004	20.878
2.993	20.79
2.983	20.803
2.973	20.734
2.962	20.712
2.952	20.657
2.942	20.62
2.932	20.584
2.922	20.55
2.912	20.531
2.903	20.461
2.893	20.38
2.883	20.439
2.874	20.366
2.864	20.395
2.855	20.267
2.845	20.293
2.836	20.193
2.827	20.202
2.817	20.185
2.808	20.181
2.799	20.244
2.79	20.279
2.781	20.247
2.772	20.271
2.763	20.329
2.755	20.307
2.746	20.582
2.737	20.615
2.728	20.709
2.72	20.567
2.711	20.611
2.703	20.818
2.695	20.633
2.686	20.746
2.678	20.551
2.67	20.411
2.661	20.592
2.653	20.501
2.645	20.486
2.637	20.471
2.629	20.284
2.621	20.217
2.613	20.278
2.605	20.004
2.597	20.109
2.59	20.079
2.582	19.991
2.574	19.88
2.566	19.926
2.559	19.857
2.551	19.763
2.544	19.707
2.536	19.604
2.529	19.572
2.522	19.521
2.514	19.46
2.507	19.387
2.5	19.324
2.492	19.242
2.485	19.175
2.478	19.129
2.471	19.056
2.464	19.015
2.457	18.931
2.45	18.874
2.443	18.825
2.436	18.767
2.429	18.67
2.422	18.64
2.416	18.589
2.409	18.517
2.402	18.464
2.396	18.415
2.389	18.364
2.382	18.346
2.376	18.242
2.369	18.197
2.363	18.154
2.356	18.112
2.35	18.098
2.344	17.993
2.337	17.926
2.331	17.911
2.325	17.836
2.318	17.824
2.312	17.795
2.306	17.771
2.3	17.66
2.294	17.655
2.288	17.558
2.282	17.551
2.276	17.481
2.27	17.489
2.264	17.456
2.258	17.406
2.252	17.329
2.246	17.286
2.24	17.276
2.235	17.231
2.229	17.191
2.223	17.179
2.217	17.103
2.212	17.111
2.206	17.066
2.2	17.052
2.195	16.962
2.189	16.946
2.184	16.883
2.178	16.902
2.173	16.895
2.167	16.843
2.162	16.841
2.156	16.816
2.151	16.738
2.146	16.714
2.14	16.717
2.135	16.667
2.13	16.66
2.125	16.639
2.119	16.645
2.114	16.524
2.109	16.535
2.104	16.521
2.099	16.497
2.094	16.478
2.089	16.457
2.084	16.422
