Name: Augite-hypersthene Andesite
Type: Rocks
Class: Igneous
Subclass: Intermediate
Particle Size: Solid
Sample No.: Andesite.H2
Owner: JHU
Origin: Saipan, via Smithsonian (Cat. No: NMNH 108982-15)
Description: The sample consists of a dark gray, fine-grained groundmass,
Measurement: Directional (10 degree) hemispherical reflectance
X Units: Wavelength (micrometers)
Y Units: Reflectance (percent)
wavelength	value
14.0112	2.7724
13.7147	2.8026
13.4304	2.2319
13.1577	1.9385
12.8959	2.6623
12.6443	2.6393
12.4023	2.5805
12.1694	3.1172
11.945	3.5498
11.7289	3.8899
11.5203	4.5426
11.3191	5.4321
11.1248	5.8324
10.937	6.5974
10.7555	7.0385
10.5799	7.2468
10.4099	7.2546
10.2454	7.3083
10.0859	7.807
9.9313	8.4644
9.7814	9.0265
9.636	9.4239
9.4948	9.3701
9.3577	8.966
9.2245	9.1036
9.095	9.5076
8.9691	9.7971
8.8467	9.2509
8.7275	8.6196
8.6116	8.1328
8.4986	7.3502
8.3886	6.1432
8.2814	4.965
8.1769	3.4826
8.075	2.842
7.9756	2.6672
7.8786	2.3667
7.784	2.0519
7.6916	1.8745
7.6014	1.7501
7.5133	1.7538
7.4272	1.7688
7.343	1.7998
7.2607	1.9111
7.1803	2.0276
7.1016	2.2026
7.0246	2.3072
6.9493	2.3608
6.8755	2.442
6.8034	2.5948
6.7327	2.767
6.6634	2.9121
6.5956	2.92
6.5292	2.9168
6.464	2.787
6.4002	2.3939
6.3376	2.134
6.2762	1.9621
6.216	1.8018
6.157	1.7447
6.099	1.7606
6.0421	1.874
5.9863	2.0252
5.9315	2.2722
5.8777	2.5437
5.8249	2.7077
5.773	2.8399
5.722	2.9367
5.6719	3.0483
5.6227	3.1101
5.5744	3.1932
5.5268	3.3298
5.4801	3.4156
5.4341	3.4676
5.3889	3.4038
5.3445	3.2984
5.3008	3.4135
5.2578	3.7525
5.2154	4.1524
5.1738	4.5091
5.1328	4.7498
5.0925	4.8464
5.0528	4.9455
5.0137	5.0278
4.9752	5.1935
4.9373	5.4836
4.9	5.9644
4.8632	6.4638
4.827	6.8613
4.7913	7.1514
4.7561	7.3584
4.7215	7.4771
4.6873	7.6603
4.6536	7.8522
4.6205	8.1371
4.5877	8.4021
4.5555	8.55
4.5237	8.775
4.4923	8.9489
4.4614	9.1397
4.4309	9.2836
4.4008	9.4633
4.3711	9.7054
4.3418	9.9865
4.3129	10.3504
4.2844	10.702
4.2563	11.0121
4.2285	11.2481
4.2011	11.448
4.174	11.6353
4.1473	11.7994
4.1209	11.9072
4.0949	11.982
4.0692	12.0667
4.0438	12.0114
4.0187	11.8502
3.994	11.7051
3.9695	11.7309
3.9453	11.8737
3.9214	12.0044
3.8979	12.0637
3.8746	12.0719
3.8515	12.0867
3.8288	12.116
3.8063	12.2407
3.7841	12.4249
3.7621	12.4104
3.7404	12.3467
3.7189	12.2364
3.6977	12.0698
3.6767	11.9418
3.656	11.7677
3.6355	11.5696
3.6152	11.4037
3.5951	11.2092
3.5753	10.9106
3.5557	10.6207
3.5363	10.2
3.5171	9.5486
3.4981	8.9681
3.4793	8.9514
3.4607	8.9843
3.4423	8.6747
3.4241	8.1371
3.4061	7.9083
3.3883	7.9636
3.3707	7.8257
3.3533	7.8403
3.336	7.7997
3.3189	7.6914
3.302	7.5042
3.2853	7.3117
3.2687	7.0835
3.2523	6.8665
3.2361	6.6114
3.22	6.3919
3.204	6.1556
3.1883	5.9339
3.1727	5.7135
3.1572	5.4883
3.1419	5.2997
3.1268	5.1408
3.1117	4.9507
3.0969	4.8438
3.0821	4.6835
3.0675	4.6457
3.0531	4.6859
3.0388	4.605
3.0246	4.5994
3.0105	4.4862
2.9966	4.481
2.9828	4.4133
2.9692	4.3216
2.9556	4.2712
2.9422	4.1655
2.9289	4.2059
2.9157	4.2785
2.9027	4.3366
2.8897	4.3369
2.8769	4.3038
2.8642	4.2982
2.8516	4.2312
2.8391	4.1032
2.8267	3.9732
2.8144	3.8484
2.8022	3.7385
2.7902	3.8168
2.7782	3.8203
2.7664	3.82
2.7546	4.0356
2.7429	4.3348
2.7314	4.909
2.7199	5.948
2.7085	7.4803
2.6973	9.0164
2.6861	10.4442
2.675	11.223
2.664	11.6955
2.6531	11.9459
2.6423	12.1961
2.6315	12.3953
2.6209	12.4989
2.6103	12.5917
2.5999	12.6586
2.5895	12.6963
2.5792	12.712
2.569	12.7096
2.5588	12.738
2.5487	12.6703
2.5388	12.6876
2.5289	12.7057
2.519	12.7809
2.5093	12.7839
2.4996	12.8119
2.49	12.9626
2.4805	13.0174
2.471	13.0826
2.4616	13.1875
2.4523	13.1578
2.4431	13.2805
2.4339	13.3813
2.4248	13.4465
2.4157	13.4826
2.4068	13.5639
2.3979	13.6572
2.389	13.7085
2.3802	13.7552
2.3715	13.739
2.3629	13.7868
2.3543	13.9734
2.3458	13.9047
2.3373	14.0747
2.3289	14.1621
2.3206	14.1199
2.3123	13.9286
2.3041	13.9111
2.2959	13.9296
2.2878	14.0451
2.2798	14.3027
2.2718	14.4248
2.2638	14.5015
2.2559	14.4522
2.2481	14.3803
2.2403	14.4114
2.2326	14.4684
2.225	14.418
2.2173	14.4295
2.2098	14.4989
2.2023	14.6379
2.1948	14.7288
2.1874	14.8701
2.18	14.8999
2.1727	14.9451
2.1655	14.9194
2.1583	14.98
2.1511	14.9948
2.144	15.0234
2.1369	14.9109
2.1299	15.048
2.1229	14.9594
2.116	15.0407
2.1091	15.0639
2.1023	15.0075
2.0955	15.0278
2.0887	15.0033
2.082	15.0205
2.06	15.0032
2.028	14.7678
1.996	14.7932
1.964	14.2875
1.932	14.215
1.9	13.9895
1.868	15.121
1.836	15.3249
1.804	15.4172
1.772	15.5292
1.74	15.5949
1.708	15.698
1.676	15.5493
1.644	15.5852
1.612	15.5533
1.58	15.5996
1.548	15.7904
1.516	15.711
1.484	15.5679
1.452	15.5376
1.42	15.4368
1.388	15.6729
1.356	15.994
1.324	15.8392
1.292	16.0898
1.26	15.9641
1.228	16.0938
1.196	16.1274
1.164	16.2228
1.132	16.4609
1.1	16.5361
1.068	16.6757
1.036	16.5766
1.004	16.8916
0.972	17.1698
0.94	17.4923
0.908	18.1895
0.876	18.9901
0.844	19.9472
0.812	20.9123
0.795	21.0757
0.787	21.3485
0.779	21.0875
0.771	21.0495
0.763	21.0506
0.755	21.196
0.747	20.9863
0.739	21.5012
0.731	21.4283
0.723	21.4055
0.715	21.4737
0.707	21.2372
0.699	21.5334
0.691	21.5251
0.683	21.5544
0.675	21.4602
0.667	21.3695
0.659	21.4351
0.651	21.5077
0.643	21.467
0.635	21.6464
0.627	21.423
0.619	21.5052
0.611	21.4987
0.603	21.4616
0.595	21.5569
0.587	21.5291
0.579	21.5963
0.571	21.4778
0.563	21.4781
0.555	21.3575
0.547	21.4053
0.539	21.3941
0.531	21.3944
0.523	21.4151
0.515	21.4046
0.507	21.0244
0.499	21.302
0.491	21.0388
0.483	21.2546
0.475	21.3122
0.467	21.0337
0.459	20.3948
0.451	20.5571
0.443	20.2536
0.435	20.0599
0.427	19.8601
0.419	19.2461
0.411	18.9529
0.403	18.7685
