Name: Olivine (Fo11) (Fe+2,Mg)2SiO4
Type: Mineral
Class: Silicates
Subclass: Nesosilicates (Isolated tetrahedra); (Olivine Group)
Particle Size: 0-60 micrometers.  (Packed powder simulates coarse.)
Sample No.: olivine.10
Owner: JHU
Wavelength Range: IR
Origin: Twin Sisters Peak, Washington via Trude King #TSD
Description: Olivine from the Twin Sisters intrusive was optically
Measurement: Bidirectional reflectance
X Units: Wavelength (micrometers)
Y Units: Reflectance (percent)
wavelength	value
25.0442	9.4131
24.3388	10.4057
23.6719	12.3344
23.0407	12.3159
22.4422	11.2829
21.8741	8.2114
21.334	7.7261
20.8199	6.7483
20.33	6.6904
19.8627	9.1396
19.4163	9.9013
18.9896	11.6787
18.5812	11.4453
18.19	11.5249
17.815	10.5263
17.4551	8.3174
17.1094	5.6184
16.7772	4.7849
16.4576	5.3982
16.15	6.1848
15.8537	6.4433
15.568	5.6777
15.2925	4.4221
15.0265	3.7727
14.7697	3.8291
14.5214	4.041
14.2814	4.3882
14.0492	4.7007
13.8244	4.9709
13.6067	5.2324
13.3957	5.397
13.1912	5.5642
12.9929	5.6628
12.8004	5.699
12.6135	5.6487
12.432	5.5049
12.2557	5.3411
12.0843	5.1836
11.9176	5.2043
11.7555	5.0752
11.5977	5.6921
11.444	7.0212
11.2944	7.979
11.1487	8.5779
11.0067	9.1433
10.8682	9.7617
10.7332	10.3772
10.6015	11.0156
10.473	11.4416
10.3476	9.2829
10.2251	8.3852
10.1056	10.3664
9.98873	9.9692
9.87458	10.1582
9.763	10.3125
9.65392	10.4316
9.54724	10.4731
9.44291	10.2954
9.34082	10.0324
9.24091	8.8598
9.14312	7.2058
9.04739	5.7803
8.95363	4.564
8.8618	4.02
8.77183	4.0571
8.68368	4.3611
8.59727	4.6997
8.51257	5.0615
8.42951	5.3249
8.34807	5.676
8.26819	5.9558
8.18981	6.2151
8.11292	6.5998
8.03745	6.8865
7.96337	7.1308
7.89064	7.2568
7.81924	7.3083
7.74911	7.3772
7.68023	7.4614
7.61256	7.426
7.54608	7.3491
7.48074	7.4026
7.41653	7.5144
7.35341	7.6387
7.29136	7.8198
7.23034	7.8757
7.17033	7.9707
7.11132	8.0945
7.05327	8.1555
6.99616	8.3232
6.93996	8.57
6.88467	8.7563
6.83024	8.8076
6.77667	8.9038
6.72393	9.0947
6.67201	9.2927
6.62089	9.4118
6.57054	9.4817
6.52095	9.424
6.4721	9.4438
6.42398	9.4223
6.37657	9.3447
6.32986	9.2934
6.28382	9.2204
6.23845	9.2527
6.19373	9.3423
6.14965	9.3603
6.10619	9.2937
6.06334	8.8948
6.02109	7.9946
5.97942	7.8076
5.93832	8.0984
5.89778	8.1831
5.8578	8.2029
5.81835	8.3637
5.77943	8.4333
5.74103	8.4094
5.70314	8.05
5.66574	7.5207
5.62883	7.1865
5.5924	7.4277
5.55644	8.0891
5.52093	8.3142
5.48588	8.2929
5.45127	8.247
5.41709	8.3874
5.38334	8.6091
5.35	8.8183
5.31708	8.9546
5.28456	9.0129
5.25243	8.9863
5.2207	8.9597
5.18934	9.1067
5.15836	9.3183
5.12775	9.5093
5.09749	9.6611
5.0676	9.7632
5.03805	9.7903
5.00884	9.7351
4.97998	9.5954
4.95144	9.4048
4.92322	9.5359
4.89533	9.9758
4.86775	10.5608
4.84048	10.9428
4.81351	11.0962
4.78684	11.1889
4.76047	11.2524
4.73439	11.2934
4.70859	11.323
4.68306	11.3591
4.65782	11.3904
4.63284	11.4065
4.60814	11.4343
4.58369	11.4458
4.5595	11.4751
4.53557	11.4895
4.51188	11.5097
4.48845	11.5378
4.46525	11.5561
4.44229	11.5813
4.41957	11.6086
4.39708	11.6272
4.37481	11.6462
4.35277	11.6648
4.33096	11.6701
4.30935	11.6814
4.28797	11.7104
4.26679	11.7363
4.24583	11.7487
4.22506	11.7668
4.2045	11.7722
4.18414	11.759
4.16398	11.7619
4.14401	11.7656
4.12423	11.7541
4.10464	11.761
4.08523	11.7536
4.066	11.748
4.04696	11.7419
4.02809	11.7014
4.0094	11.6606
3.99088	11.6501
3.97253	11.6491
3.95435	11.6477
3.93634	11.6557
3.91848	11.6474
3.90079	11.6457
3.88326	11.6245
3.86589	11.5781
3.84867	11.5591
3.8316	11.5398
3.81468	11.528
3.79791	11.5049
3.78129	11.4883
3.76482	11.4807
3.74848	11.4536
3.73229	11.4211
3.71624	11.4021
3.70032	11.3745
3.68454	11.332
3.6689	11.3261
3.65338	11.2976
3.638	11.2683
3.62275	11.2343
3.60762	11.1936
3.59262	11.1643
3.57775	11.1157
3.56299	11.0691
3.54836	11.0215
3.53385	10.9599
3.51945	10.8486
3.50517	10.6562
3.49101	10.6836
3.47696	10.6916
3.46303	10.6758
3.4492	10.5866
3.43549	10.4673
3.42188	10.258
3.40838	10.271
3.39499	10.3811
3.38171	10.3584
3.36852	10.3982
3.35544	10.4406
3.34246	10.4428
3.32958	10.4218
3.3168	10.3877
3.30411	10.3672
3.29153	10.3215
3.27903	10.3039
3.26664	10.2575
3.25433	10.2187
3.24212	10.1804
3.23	10.1443
3.21797	10.1155
3.20603	10.0661
3.19418	10.0295
3.18241	9.9768
3.17074	9.9358
3.15914	9.9089
3.14763	9.8552
3.13621	9.7912
3.12487	9.7612
3.11361	9.7041
3.10243	9.6477
3.09133	9.6062
3.0803	9.5749
3.06936	9.529
3.0585	9.4856
3.04771	9.4499
3.037	9.4096
3.02636	9.3657
3.0158	9.3025
3.00531	9.2524
2.99489	9.2087
2.98454	9.165
2.97427	9.0928
2.96407	9.0617
2.95393	8.9953
2.94387	8.928
2.93387	8.8994
2.92394	8.8464
2.91408	8.7998
2.90429	8.7744
2.89456	8.7514
2.88489	8.7126
2.87529	8.6682
2.86576	8.6306
2.85628	8.6333
2.84687	8.6018
2.83752	8.5742
2.82823	8.5688
2.81901	8.5351
2.80984	8.4873
2.80073	8.4656
2.79168	8.4167
2.78269	8.4241
2.77376	8.3867
2.76488	8.3454
2.75606	8.2893
2.7473	8.0447
2.73859	7.914
2.72994	7.7829
2.72134	7.5107
2.7128	7.0766
2.70431	7.4682
2.69587	8.9858
2.68748	9.9262
2.67915	10.6091
2.67087	10.9961
2.66264	11.0256
2.65446	11.032
2.64633	11.0083
2.63825	11.0366
2.63021	11.0886
2.62223	11.0061
2.6143	11.0185
2.60641	11.0146
2.59857	11.0044
2.59078	10.9685
2.58304	11.0071
2.57534	10.9377
2.56768	10.8735
2.56008	10.8969
2.55251	10.8442
2.54499	10.823
2.53752	10.8247
2.53009	10.7868
2.5227	10.7717
2.51536	10.726
2.50806	10.7248
2.5008	10.7143
2.49358	10.7226
2.4864	10.7058
2.47927	10.716
2.47218	10.685
2.46512	10.6792
2.45811	10.6621
2.45114	10.6706
2.4442	10.646
2.43731	10.646
2.43045	10.6294
2.42363	10.5976
2.41685	10.5998
2.41011	10.6045
2.40341	10.5984
2.39674	10.5859
2.39011	10.5525
2.38352	10.5483
2.37696	10.5456
2.37044	10.5298
2.36395	10.5119
2.35751	10.5295
2.35109	10.5078
2.34471	10.4646
2.33836	10.4194
2.33205	10.4233
2.32578	10.4336
2.31953	10.4155
2.31332	10.459
2.30714	10.4951
2.301	10.4638
2.29489	10.487
2.28881	10.478
2.28276	10.4468
2.27675	10.4765
2.27076	10.4643
2.26481	10.4995
2.25889	10.4905
2.253	10.5093
2.24714	10.5088
2.24131	10.4746
2.23551	10.518
2.22974	10.5063
2.224	10.4975
2.21829	10.5337
2.21261	10.4922
2.20696	10.5298
2.20134	10.4853
2.19574	10.5454
2.19018	10.5473
2.18464	10.5627
2.17913	10.5771
2.17365	10.5188
2.16819	10.5488
2.16277	10.5581
2.15737	10.5595
2.15199	10.5449
2.14665	10.5871
2.14133	10.5478
2.13603	10.6037
2.13077	10.5864
2.12552	10.5903
2.12031	10.6418
2.11512	10.6162
2.10995	10.625
2.10481	10.6465
2.0997	10.6408
2.09461	10.6738
2.08954	10.7387
2.0845	10.7153
2.07948	10.7177
