Name: Calcite CaCO3
Type: Mineral
Class: Carbonates
Particle Size: Fine  (74 -2 Micrometers)
Sample No.: calcite.1
Owner: JHU
Wavelength Range: IR
Origin: Hunt and Salisbury Collection #194B (purchased from Ward's
Description: The sample consisted of transparent euhedral crystals.
Measurement: Bidirectional reflectance
X Units: Wavelength (micrometers)
Y Units: Reflectance (percent)
wavelength	value
25.044	2.416
24.339	1.7617
23.672	0.8599
23.041	0.6536
22.442	0.6777
21.874	1.178
21.334	1.3799
20.82	1.5564
20.33	2.0403
19.863	2.5688
19.416	3.053
18.99	3.6379
18.581	4.2231
18.19	4.9607
17.815	5.6243
17.455	5.5581
17.109	5.4824
16.777	5.9258
16.458	6.8874
16.15	7.6372
15.854	8.1467
15.568	8.9219
15.292	9.5703
15.027	10.1223
14.77	10.2302
14.521	9.7158
14.281	7.186
14.049	1.1548
13.824	6.5532
13.607	9.9536
13.396	11.2605
13.191	11.009
12.993	9.7363
12.8	9.2864
12.614	9.7614
12.432	10.1115
12.256	10.2258
12.084	10.48
11.918	9.6709
11.755	5.7632
11.598	4.7532
11.444	1.5293
11.294	3.0566
11.149	9.0693
11.007	10.1045
10.868	10.2566
10.733	9.1025
10.602	8.9038
10.473	9.1907
10.348	9.7363
10.225	8.9792
10.106	8.8069
9.989	8.2593
9.875	7.822
9.763	8.1282
9.654	9.1347
9.547	9.3618
9.443	9.4284
9.341	8.8308
9.241	8.9382
9.143	9.0249
9.047	9.2705
8.954	9.0876
8.862	8.7055
8.772	8.2031
8.684	6.9294
8.597	5.3948
8.513	5.2519
8.43	5.3926
8.348	5.8696
8.268	6.0163
8.19	6.0378
8.113	5.7312
8.037	5.5185
7.963	5.5007
7.891	5.0837
7.819	4.9153
7.749	4.6872
7.68	4.1536
7.613	3.511
7.546	3.2959
7.481	3.0608
7.417	2.6909
7.353	2.3103
7.291	1.8054
7.23	1.5596
7.17	1.4641
7.111	1.5793
7.053	1.6885
6.996	1.6741
6.94	1.6807
6.885	1.7541
6.83	1.8372
6.777	1.9443
6.724	2.0947
6.672	2.3037
6.621	2.5361
6.571	2.8896
6.521	3.3345
6.472	3.9294
6.424	4.1728
6.377	4.0212
6.33	3.405
6.284	3.167
6.238	3.1465
6.194	2.831
6.15	2.7651
6.106	2.9407
6.063	3.2214
6.021	3.7739
5.979	4.2397
5.938	4.6619
5.898	5.1089
5.858	5.2285
5.818	5.0803
5.779	4.8725
5.741	4.9746
5.703	5.5141
5.666	6.2324
5.629	6.3896
5.592	3.0564
5.556	1.321
5.521	6.6633
5.486	8.9577
5.451	10.4052
5.417	11.593
5.383	12.4377
5.35	13.0893
5.317	13.6848
5.285	14.1421
5.252	14.4428
5.221	14.6513
5.189	14.8889
5.158	15.029
5.128	15.1413
5.097	13.6125
5.068	15.4118
5.038	15.478
5.009	15.4704
4.98	15.4253
4.951	15.3769
4.923	15.3872
4.895	15.4284
4.868	15.4714
4.84	15.5217
4.814	15.5461
4.787	15.5297
4.76	15.2971
4.734	14.8205
4.709	12.9192
4.683	11.3506
4.658	11.435
4.633	13.1352
4.608	14.0478
4.584	14.2192
4.56	14.2832
4.536	14.2995
4.512	14.3357
4.488	14.5805
4.465	15.0258
4.442	15.3276
4.42	15.58
4.397	15.7304
4.375	15.7827
4.353	15.4943
4.331	15.4001
4.309	15.3762
4.288	15.489
4.267	15.448
4.246	15.3545
4.225	15.2019
4.205	15.0666
4.184	14.8476
4.164	14.5832
4.144	14.1689
4.124	13.5957
4.105	12.9472
4.085	12.2268
4.066	11.2085
4.047	9.5544
4.028	7.0649
4.009	4.6953
3.991	2.6042
3.973	2.375
3.954	3.1611
3.936	5.0471
3.918	5.4512
3.901	5.7207
3.883	5.8772
3.866	5.9905
3.849	6.2143
3.832	7.1887
3.815	8.9402
3.798	11.4238
3.781	13.5359
3.765	14.2695
3.748	14.5756
3.732	14.9296
3.716	15.1247
3.7	15.2282
3.685	15.268
3.669	15.2302
3.653	15.1501
3.638	15.0083
3.623	14.8132
3.608	14.5283
3.593	14.0034
3.578	12.8654
3.563	12.6701
3.548	12.1714
3.534	10.4277
3.519	7.0637
3.505	5.5801
3.491	4.706
3.477	4.1829
3.463	6.0742
3.449	6.7236
3.435	6.8332
3.422	6.8269
3.408	6.7546
3.395	6.5815
3.382	6.3403
3.369	6.2051
3.355	5.416
3.342	7.1228
3.33	10.8918
3.317	12.2397
3.304	12.9629
3.292	13.4887
3.279	13.8842
3.267	14.1958
3.254	14.424
3.242	14.614
3.23	14.7771
3.218	14.9401
3.206	15.0656
3.194	15.1494
3.182	15.1899
3.171	15.0734
3.159	14.6547
3.148	14.5517
3.136	14.7631
3.125	14.8476
3.114	14.4743
3.102	14.5749
3.091	14.9489
3.08	15.3095
3.069	15.4721
3.058	15.5759
3.048	15.739
3.037	15.8503
3.026	15.9306
3.016	16.0017
3.005	16.0683
2.995	16.1482
2.985	16.2026
2.974	16.219
2.964	16.2382
2.954	16.2348
2.944	16.2815
2.934	16.3212
2.924	16.3427
2.914	16.3732
2.904	16.3774
2.895	16.4025
2.885	16.3779
2.875	16.1936
2.866	16.0456
2.856	16.3803
2.847	16.2661
2.838	16.3842
2.828	16.3481
2.819	16.2407
2.81	15.9726
2.801	15.5556
2.792	14.7558
2.783	14.9492
2.774	15.6831
2.765	16.2539
2.756	16.5175
2.747	16.6484
2.739	16.7832
2.73	16.8515
2.721	16.9665
2.713	17.112
2.704	17.312
2.696	17.4853
2.687	17.6669
2.679	17.8032
2.671	17.8691
2.663	17.913
2.654	17.935
2.646	17.9126
2.638	17.9379
2.63	17.9589
2.622	17.914
2.614	17.9213
2.606	17.8852
2.599	17.8554
2.591	17.7661
2.583	17.6582
2.575	17.5478
2.568	17.3833
2.56	17.0017
2.553	16.2741
2.545	15.3891
2.538	14.9316
2.53	15.1533
2.523	15.645
2.515	15.968
2.508	16.1167
2.501	16.1699
2.494	16.2053
2.486	16.3576
2.479	16.5937
2.472	16.8342
2.465	17.0576
2.458	17.2944
2.451	17.4106
2.444	17.5293
2.437	17.5908
2.43	17.6831
2.424	17.7482
2.417	17.8371
2.41	17.8605
2.403	17.8486
2.397	17.8381
2.39	17.8647
2.384	17.843
2.377	17.7717
2.37	17.6806
2.364	17.455
2.358	17.0302
2.351	16.6626
2.345	16.3813
2.338	16.3088
2.332	16.3999
2.326	16.6684
2.32	16.8652
2.313	16.9453
2.307	17.0009
2.301	17.041
2.295	17.0927
2.289	17.2033
2.283	17.3098
2.277	17.4387
2.271	17.4975
2.265	17.58
2.259	17.6386
2.253	17.6945
2.247	17.7802
2.241	17.7736
2.236	17.8479
2.23	17.9074
2.224	17.8667
2.218	17.9404
2.213	17.9731
2.207	17.9511
2.201	17.9472
2.196	17.9907
2.19	17.9902
2.185	18.0205
2.179	17.9931
2.174	17.9809
2.168	18.0122
2.163	18.0234
2.157	17.9614
2.152	17.9091
2.147	17.9799
2.141	18.02
2.136	18.1103
2.131	18.1152
2.126	18.122
2.12	18.1269
2.115	18.0888
2.11	18.1084
2.105	18.1303
2.1	18.1899
2.095	18.2363
2.09	18.2148
2.085	18.1977
2.079	18.1455
