Name: Riebeckite Na2(Fe+2,Mg)3Fe2+3Si8O22(OH)2
Type: Mineral
Class: Silicates
Subclass: Inosilicates (chain silicates); (Amphibole Group)
Particle Size: Fine  (0 - 74  Micrometers)
Sample No.: riebeck.1
Owner: JHU
Wavelength Range: IR
Origin: Hurricane Mountain, Conway, New Hampshire via the
Description: The sample was an 11.54 g portion of a black crystal.
Measurement: Bidirectional reflectance
X Units: Wavelength (micrometers)
Y Units: Reflectance (percent)
wavelength	value
25.0442	3.6621
24.3388	3.5488
23.6719	3.4184
23.0407	3.5823
22.4422	3.8899
21.8741	4.219
21.334	4.1748
20.8199	4.4458
20.33	4.4556
19.8627	4.375
19.4163	4.2441
18.9896	3.2666
18.5812	3.2036
18.19	3.8291
17.815	3.574
17.4551	2.6272
17.1094	2.2427
16.7772	2.2519
16.4576	2.1362
16.15	2.0715
15.8537	1.873
15.568	1.6658
15.2925	1.6648
15.0265	1.7273
14.7697	2.0749
14.5214	2.3088
14.2814	2.48
14.0492	2.5266
13.8244	2.8039
13.6067	2.7978
13.3957	2.3271
13.1912	2.1804
12.9929	2.3035
12.8004	2.5557
12.6135	3.5134
12.432	3.9707
12.2557	3.9939
12.0843	3.8591
11.9176	3.5901
11.7555	3.2937
11.5977	2.9011
11.444	2.542
11.2944	2.4275
11.1487	2.3169
11.0067	2.3484
10.8682	2.4268
10.7332	2.4614
10.6015	2.5361
10.473	2.688
10.3476	2.8413
10.2251	3.1201
10.1056	3.1851
9.98873	3.3039
9.87458	3.2329
9.763	3.1982
9.65392	3.0835
9.54724	2.7952
9.44291	2.9973
9.34082	3.1553
9.24091	3.2976
9.14312	3.137
9.04739	2.8745
8.95363	2.6169
8.8618	2.687
8.77183	3.196
8.68368	3.9748
8.59727	3.9302
8.51257	3.084
8.42951	2.3157
8.34807	1.9846
8.26819	2.0889
8.18981	2.491
8.11292	3.0195
8.03745	3.5871
7.96337	4.1445
7.89064	4.5962
7.81924	4.9995
7.74911	5.3296
7.68023	5.5659
7.61256	5.7927
7.54608	6.0884
7.48074	6.3855
7.41653	6.6741
7.35341	6.8655
7.29136	7.0364
7.23034	7.2566
7.17033	7.5242
7.11132	7.8249
7.05327	8.1155
6.99616	8.3769
6.93996	8.615
6.88467	8.8183
6.83024	8.9819
6.77667	9.1313
6.72393	9.2319
6.67201	9.3474
6.62089	9.4909
6.57054	9.6594
6.52095	9.7683
6.4721	9.7207
6.42398	9.4634
6.37657	9.0527
6.32986	8.552
6.28382	8.1147
6.23845	7.8012
6.19373	7.635
6.14965	7.7453
6.10619	8.0007
6.06334	8.2795
6.02109	8.5246
5.97942	8.6091
5.93832	8.5915
5.89778	8.5044
5.8578	8.4407
5.81835	8.4004
5.77943	8.3547
5.74103	8.3105
5.70314	8.2807
5.66574	8.2475
5.62883	8.28
5.5924	8.4082
5.55644	8.7051
5.52093	9.1709
5.48588	9.5376
5.45127	9.6701
5.41709	9.8037
5.38334	10.0312
5.35	10.3352
5.31708	10.5783
5.28456	10.7158
5.25243	10.8435
5.2207	10.9406
5.18934	11.0398
5.15836	11.1897
5.12775	11.3376
5.09749	11.4841
5.0676	11.6003
5.03805	11.7705
5.00884	11.9206
4.97998	12.0522
4.95144	12.2485
4.92322	12.4712
4.89533	12.7341
4.86775	13.0046
4.84048	13.2295
4.81351	13.4121
4.78684	13.5717
4.76047	13.7111
4.73439	13.8972
4.70859	14.0791
4.68306	14.2812
4.65782	14.507
4.63284	14.7546
4.60814	15.0625
4.58369	15.3754
4.5595	15.644
4.53557	15.8781
4.51188	16.0676
4.48845	16.2368
4.46525	16.3679
4.44229	16.4873
4.41957	16.5908
4.39708	16.6762
4.37481	16.7468
4.35277	16.8015
4.33096	16.8357
4.30935	16.8566
4.28797	16.8994
4.26679	16.937
4.24583	16.9785
4.22506	17.021
4.2045	17.0593
4.18414	17.1071
4.16398	17.1484
4.14401	17.1731
4.12423	17.2058
4.10464	17.2458
4.08523	17.2922
4.066	17.3513
4.04696	17.3869
4.02809	17.4184
4.0094	17.4624
3.99088	17.5063
3.97253	17.5332
3.95435	17.5725
3.93634	17.6115
3.91848	17.6677
3.90079	17.7053
3.88326	17.7285
3.86589	17.7297
3.84867	17.7404
3.8316	17.736
3.81468	17.7502
3.79791	17.7558
3.78129	17.7707
3.76482	17.7717
3.74848	17.7612
3.73229	17.77
3.71624	17.7612
3.70032	17.7504
3.68454	17.7412
3.6689	17.7309
3.65338	17.7277
3.638	17.7221
3.62275	17.715
3.60762	17.7077
3.59262	17.6975
3.57775	17.6547
3.56299	17.6342
3.54836	17.5881
3.53385	17.5075
3.51945	17.354
3.50517	17.0373
3.49101	17.0378
3.47696	17.0275
3.46303	17.0207
3.4492	16.8769
3.43549	16.698
3.42188	16.3374
3.40838	16.2661
3.39499	16.4431
3.38171	16.4472
3.36852	16.559
3.35544	16.7302
3.34246	16.8754
3.32958	16.9389
3.3168	16.9436
3.30411	16.9428
3.29153	16.9362
3.27903	16.9187
3.26664	16.8576
3.25433	16.7993
3.24212	16.7221
3.23	16.6308
3.21797	16.5466
3.20603	16.4934
3.19418	16.4504
3.18241	16.4013
3.17074	16.3391
3.15914	16.3227
3.14763	16.2878
3.13621	16.2102
3.12487	16.1884
3.11361	16.1555
3.10243	16.104
3.09133	16.0703
3.0803	16.0398
3.06936	15.9951
3.0585	15.9462
3.04771	15.9152
3.037	15.9062
3.02636	15.8686
3.0158	15.8393
3.00531	15.7961
2.99489	15.7924
2.98454	15.7888
2.97427	15.759
2.96407	15.728
2.95393	15.7268
2.94387	15.7212
2.93387	15.7136
2.92394	15.705
2.91408	15.7036
2.90429	15.6943
2.89456	15.6887
2.88489	15.6738
2.87529	15.6665
2.86576	15.645
2.85628	15.6867
2.84687	15.6982
2.83752	15.7517
2.82823	15.7744
2.81901	15.7578
2.80984	15.7744
2.80073	15.7397
2.79168	15.665
2.78269	15.2746
2.77376	12.0341
2.76488	4.5647
2.75606	9.9868
2.7473	7.6616
2.73859	8.2339
2.72994	13.9882
2.72134	15.0004
2.7128	15.7226
2.70431	15.1745
2.69587	16.7719
2.68748	17.9641
2.67915	18.3886
2.67087	18.5136
2.66264	18.5722
2.65446	18.5341
2.64633	18.6147
2.63825	18.6826
2.63021	18.7712
2.62223	18.8127
2.6143	18.882
2.60641	18.9023
2.59857	18.8557
2.59078	18.8584
2.58304	18.8674
2.57534	18.8464
2.56768	18.8386
2.56008	18.8095
2.55251	18.7924
2.54499	18.7275
2.53752	18.6513
2.53009	18.5441
2.5227	18.5307
2.51536	18.4677
2.50806	18.4592
2.5008	18.478
2.49358	18.4602
2.4864	18.5266
2.47927	18.5722
2.47218	18.5341
2.46512	18.5256
2.45811	18.5473
2.45114	18.5236
2.4442	18.3476
2.43731	18.2688
2.43045	17.9875
2.42363	17.7431
2.41685	17.5344
2.41011	17.5324
2.40341	17.7334
2.39674	17.966
2.39011	18.0878
2.38352	18.1975
2.37696	18.2597
2.37044	18.1779
2.36395	18.0207
2.35751	17.5112
2.35109	16.6396
2.34471	16.1223
2.33836	16.166
2.33205	16.509
2.32578	16.9228
2.31953	17.4941
2.31332	17.7021
2.30714	17.7539
2.301	17.8574
2.29489	18.0263
2.28881	18.0771
2.28276	18.0722
2.27675	18.0617
2.27076	18.0839
2.26481	18.0822
2.25889	18.1057
2.253	18.0581
2.24714	18.0527
2.24131	18.0239
2.23551	18.0166
2.22974	17.9912
2.224	17.9946
2.21829	17.9487
2.21261	17.9585
2.20696	17.9438
2.20134	17.9145
2.19574	17.9379
2.19018	17.8867
2.18464	17.8789
2.17913	17.8696
2.17365	17.8388
2.16819	17.8676
2.16277	17.8779
2.15737	17.9028
2.15199	17.83
2.14665	17.7739
2.14133	17.7382
2.13603	17.7719
2.13077	17.7373
2.12552	17.7836
2.12031	17.7534
2.11512	17.7617
2.10995	17.7314
2.10481	17.7329
2.0997	17.7358
2.09461	17.8085
2.08954	17.811
2.0845	17.7954
2.07948	17.7622
