Name: Staurolite (Fe+2,Mg,Zn)2Al9(Si,Al)4O22(OH)2
Type: Mineral
Class: Silicates
Subclass: Nesosilicates (Framework silicates);
Particle Size: Fine  (Less than 2 Micrometers)
Sample No.: staurol.1
Owner: JHU
Wavelength Range: IR
Origin: Rubellita, Minas Gerais, Brazil via the Smithsonian (sample no.
Description: Sample was a large, dark brown, prismatic crystal with
Measurement: Transmission
X Units: Wavelength (micrometers)
Y Units: Transmittance (percent)
wavelength	value
25.0442	54.3358
24.3388	49.9999
23.6719	40.5976
23.0407	36.9628
22.4422	46.6249
21.8741	44.9081
21.334	38.2538
20.8199	32.1034
20.33	30.3202
19.8627	32.9355
19.4163	33.4657
18.9896	32.6679
18.5812	31.7109
18.19	31.5907
17.815	32.4355
17.4551	30.4745
17.1094	26.5644
16.7772	25.4296
16.4576	26.2587
16.15	26.6308
15.8537	26.747
15.568	26.8017
15.2925	28.4833
15.0265	30.454
14.7697	32.412
14.5214	33.7489
14.2814	35.8427
14.0492	38.7382
13.8244	45.5643
13.6067	53.2093
13.3957	59.0648
13.1912	63.5037
12.9929	68.4241
12.8004	70.9666
12.6135	71.6937
12.432	70.1741
12.2557	62.9754
12.0843	54.5135
11.9176	49.5585
11.7555	47.6508
11.5977	49.0258
11.444	48.0863
11.2944	45.4579
11.1487	42.5858
11.0067	41.2118
10.8682	38.3637
10.7332	35.6132
10.6015	34.3793
10.473	33.37
10.3476	32.2426
10.2251	32.7626
10.1056	33.788
9.98873	34.8319
9.87458	35.0785
9.763	35.0434
9.65392	38.4984
9.54724	45.2557
9.44291	51.6644
9.34082	56.2894
9.24091	59.9784
9.14312	62.9334
9.04739	66.0824
8.95363	69.3245
8.8618	71.7693
8.77183	73.8851
8.68368	75.5003
8.59727	76.889
8.51257	78.5682
8.42951	80.4212
8.34807	82.0867
8.26819	83.7295
8.18981	85.1797
8.11292	86.3455
8.03745	87.3753
7.96337	88.2178
7.89064	89.0078
7.81924	89.8008
7.74911	90.5449
7.68023	91.158
7.61256	91.6621
7.54608	92.1765
7.48074	92.6589
7.41653	93.0706
7.35341	93.4512
7.29136	93.781
7.23034	94.0996
7.17033	94.1829
7.11132	94.5293
7.05327	94.9883
6.99616	95.3096
6.93996	95.4417
6.88467	95.8115
6.83024	96.2148
6.77667	96.5544
6.72393	96.8887
6.67201	97.1072
6.62089	97.2627
6.57054	97.4802
6.52095	97.5537
6.4721	97.6445
6.42398	97.6445
6.37657	97.6609
6.32986	97.6824
6.28382	97.6501
6.23845	97.5828
6.19373	97.7195
6.14965	97.9834
6.10619	98.0293
6.06334	97.9412
6.02109	97.4014
5.97942	97.2187
5.93832	97.8125
5.89778	98.1357
5.8578	98.1804
5.81835	98.081
5.77943	98.0188
5.74103	98.0085
5.70314	97.8769
5.66574	97.7178
5.62883	97.5857
5.5924	97.4365
5.55644	97.2932
5.52093	97.1328
5.48588	96.9919
5.45127	96.9099
5.41709	96.875
5.38334	96.697
5.35	96.6257
5.31708	96.5642
5.28456	96.49
5.25243	96.5088
5.2207	96.418
5.18934	96.3679
5.15836	96.3633
5.12775	96.2976
5.09749	96.2637
5.0676	96.2048
5.03805	96.1248
5.00884	96.0557
4.97998	95.9822
4.95144	95.9768
4.92322	95.8826
4.89533	95.801
4.86775	95.7283
4.84048	95.5886
4.81351	95.5085
4.78684	95.3982
4.76047	95.2664
4.73439	95.0901
4.70859	94.9441
4.68306	94.8015
4.65782	94.6663
4.63284	94.5671
4.60814	94.4031
4.58369	94.2854
4.5595	94.1565
4.53557	93.9993
4.51188	93.8494
4.48845	93.6755
4.46525	93.5525
4.44229	93.4124
4.41957	93.2488
4.39708	93.0974
4.37481	93.0159
4.35277	92.8743
4.33096	92.6902
4.30935	92.5569
4.28797	92.428
4.26679	92.2835
4.24583	92.1838
4.22506	92.0369
4.2045	91.8679
4.18414	91.7156
4.16398	91.5994
4.14401	91.4607
4.12423	91.2781
4.10464	91.1633
4.08523	90.9988
4.066	90.8953
4.04696	90.7796
4.02809	90.6121
4.0094	90.5252
3.99088	90.3206
3.97253	90.1541
3.95435	90.0408
3.93634	89.8718
3.91848	89.8225
3.90079	89.6638
3.88326	89.5466
3.86589	89.3132
3.84867	89.2424
3.8316	89.0584
3.81468	88.908
3.79791	88.7581
3.78129	88.531
3.76482	88.4319
3.74848	88.3465
3.73229	88.159
3.71624	88.0183
3.70032	87.7957
3.68454	87.6521
3.6689	87.4807
3.65338	87.4182
3.638	87.2625
3.62275	87.0886
3.60762	86.9119
3.59262	86.7488
3.57775	86.676
3.56299	86.4768
3.54836	86.2732
3.53385	86.1233
3.51945	85.9397
3.50517	85.7361
3.49101	85.6013
3.47696	85.4514
3.46303	85.2366
3.4492	85.0652
3.43549	84.9363
3.42188	84.7371
3.40838	84.6038
3.39499	84.4207
3.38171	84.2151
3.36852	84.0408
3.35544	83.8357
3.34246	83.6917
3.32958	83.5506
3.3168	83.3929
3.30411	83.2249
3.29153	83.0584
3.27903	82.7898
3.26664	82.6678
3.25433	82.4163
3.24212	82.1585
3.23	81.9275
3.21797	81.6858
3.20603	81.4881
3.19418	81.282
3.18241	81.1023
3.17074	80.8523
3.15914	80.6375
3.14763	80.4627
3.13621	80.1892
3.12487	80.0183
3.11361	79.8719
3.10243	79.6092
3.09133	79.5076
3.0803	79.2381
3.06936	79.1062
3.0585	78.7752
3.04771	78.535
3.037	78.1541
3.02636	77.7205
3.0158	77.2869
3.00531	76.7654
2.99489	76.4119
2.98454	76.0721
2.97427	75.6609
2.96407	75.2039
2.95393	74.4002
2.94387	73.0936
2.93387	71.7635
2.92394	71.3299
2.91408	71.7264
2.90429	72.5584
2.89456	73.3377
2.88489	74.0193
2.87529	75.2977
2.86576	77.325
2.85628	78.8758
2.84687	79.5135
2.83752	79.5125
2.82823	79.3055
2.81901	79.2322
2.80984	78.8523
2.80073	78.2664
2.79168	78.2869
2.78269	78.5525
2.77376	78.6092
2.76488	78.3758
2.75606	77.8338
2.7473	77.4783
2.73859	76.8084
2.72994	76.367
2.72134	76.0281
2.7128	76.5867
2.70431	78.0115
2.69587	78.157
2.68748	78.0877
2.67915	77.9539
2.67087	77.533
2.66264	77.2977
2.65446	77.1639
2.64633	77.035
2.63825	76.9842
2.63021	76.783
2.62223	76.7264
2.6143	76.6307
2.60641	76.5477
2.59857	76.3943
2.59078	76.4119
2.58304	76.3123
2.57534	76.2322
2.56768	75.9705
2.56008	75.9217
2.55251	75.9021
2.54499	75.8533
2.53752	75.7674
2.53009	75.6756
2.5227	75.4432
2.51536	75.4842
2.50806	75.4275
2.5008	75.2518
2.49358	75.2303
2.4864	75.2342
2.47927	75.2244
2.47218	75.0252
2.46512	74.8143
2.45811	74.8377
2.45114	74.7889
2.4442	74.7342
2.43731	74.6834
2.43045	74.5272
2.42363	74.4061
2.41685	74.4764
2.41011	74.4158
2.40341	74.4315
2.39674	74.0701
2.39011	73.9705
2.38352	74.0115
2.37696	73.9002
2.37044	73.8065
2.36395	73.6639
2.35751	73.5193
2.35109	73.7049
2.34471	73.6717
2.33836	73.367
2.33205	73.2674
2.32578	73.1268
2.31953	73.4217
2.31332	73.6033
2.30714	73.4002
2.301	72.9608
2.29489	73.0018
2.28881	73.0643
2.28276	72.9764
2.27675	72.7068
2.27076	72.6111
2.26481	72.6033
2.25889	72.5936
2.253	72.5174
2.24714	72.533
2.24131	72.4529
2.23551	72.1795
2.22974	72.3201
2.224	72.0799
2.21829	72.1014
2.21261	72.0389
2.20696	71.6326
2.20134	71.8045
2.19574	71.9764
2.19018	71.6248
2.18464	71.4217
2.17913	71.4764
2.17365	71.5936
2.16819	71.449
2.16277	71.7733
2.15737	71.3826
2.15199	71.0389
2.14665	70.9334
2.14133	70.8436
2.13603	70.7225
2.13077	70.9256
2.12552	70.7889
2.12031	70.8553
2.11512	70.867
2.10995	70.6131
2.10481	70.492
2.0997	70.6444
2.09461	70.5233
2.08954	70.5858
2.0845	70.4569
2.07948	70.1483
