Name: Almandine Fe3+2Al2(SiO4)3
Type: Mineral
Class: Silicates
Subclass: Nesosilicates (Isolated Tetrahedra) (Garnet Group)
Particle Size: Fine (less than 2 Micrometer)
Sample No.: almandine.1
Owner: JHU
Wavelength Range: IR
Origin: Sample from Stikine River, Fort Wrangell, Alaska, USA via the
Description: The sample was a single deep maroon crystal about 2 cm
Measurement: Transmission
X Units: Wavelength (micrometers)
Y Units: Transmittance (percent)
wavelength	value
25.044	68.5311
24.339	65.1131
23.672	57.3045
23.041	45.6874
22.442	32.7734
21.874	27.3906
21.334	27.5077
20.82	25.9159
20.33	34.3378
19.863	43.8397
19.416	49.2342
18.99	52.828
18.581	62.8172
18.19	73.4109
17.815	50.6249
17.455	43.2391
17.109	51.0663
16.777	62.9452
16.458	74.2469
16.15	80.1287
15.854	81.8758
15.568	81.2117
15.292	89.2713
15.027	92.8582
14.77	93.9275
14.521	92.6775
14.281	91.5056
14.049	90.1218
13.824	87.4597
13.607	85.1502
13.396	81.7537
13.191	78.7537
12.993	75.0525
12.8	70.452
12.614	67.637
12.432	64.7034
12.256	62.4334
12.084	57.8734
11.918	51.4842
11.755	43.2894
11.598	34.2758
11.444	25.7138
11.294	32.1864
11.149	26.9472
11.007	31.58
10.868	41.2929
10.733	55.3993
10.602	58.2777
10.473	34.8358
10.348	23.9028
10.225	32.4169
10.106	35.9535
9.989	37.5785
9.875	43.7382
9.763	50.9813
9.654	55.9608
9.547	58.7791
9.443	60.2694
9.341	60.62
9.241	61.0262
9.143	63.2992
9.047	67.0623
8.954	70.6151
8.862	73.6033
8.772	75.055
8.684	76.5843
8.597	78.0955
8.513	79.1873
8.43	81.0984
8.348	83.6404
8.268	86.2061
8.19	88.2683
8.113	89.8601
8.037	90.9531
7.963	92.0007
7.891	93.0945
7.819	93.8945
7.749	94.3962
7.68	94.8779
7.613	95.4675
7.546	95.8069
7.481	96.0759
7.417	96.3748
7.353	96.5381
7.291	96.616
7.23	96.1999
7.17	96.2588
7.111	96.3467
7.053	96.7615
6.996	96.6658
6.94	95.5986
6.885	95.8369
6.83	96.6152
6.777	96.7097
6.724	96.8582
6.672	97.03
6.621	97.3008
6.571	97.0664
6.521	96.7998
6.472	96.5752
6.424	96.2158
6.377	95.9626
6.33	95.4707
6.284	94.7888
6.238	93.1924
6.194	91.1433
6.15	90.3037
6.106	91.3484
6.063	91.7517
6.021	90.5567
5.979	90.5928
5.938	93.364
5.898	94.78
5.858	95.2354
5.818	94.9548
5.779	94.7646
5.741	94.5828
5.703	94.5254
5.666	94.3435
5.629	94.1982
5.592	94.1064
5.556	94.0579
5.521	93.95
5.486	93.9919
5.451	94.0525
5.417	93.9522
5.383	93.8225
5.35	93.594
5.317	93.5352
5.285	93.3914
5.252	93.3738
5.221	93.4109
5.189	93.3457
5.158	93.2617
5.128	93.2302
5.097	93.1045
5.068	92.9978
5.038	92.8479
5.009	92.7517
4.98	92.6062
4.951	92.5466
4.923	92.4089
4.895	92.3093
4.868	92.2044
4.84	92.0808
4.814	91.9441
4.787	91.9187
4.76	91.7522
4.734	91.614
4.709	91.5095
4.683	91.4119
4.658	91.2537
4.633	91.22
4.608	91.1292
4.584	91.0076
4.56	90.8172
4.536	90.7341
4.512	90.5051
4.488	90.5164
4.465	90.3167
4.442	90.2019
4.42	90.0974
4.397	89.9988
4.375	89.8684
4.353	89.8015
4.331	89.6116
4.309	89.5393
4.288	89.3694
4.267	89.2366
4.246	89.1819
4.225	89.0691
4.205	88.9422
4.184	88.8875
4.164	88.7659
4.144	88.7073
4.124	88.553
4.105	88.4944
4.085	88.2893
4.066	88.155
4.047	88.1853
4.028	88.1218
4.009	87.9607
3.991	87.7737
3.973	87.6775
3.954	87.5725
3.936	87.512
3.918	87.4549
3.901	87.3386
3.883	87.1228
3.866	87.0628
3.849	86.9431
3.832	86.8142
3.815	86.8006
3.798	86.6819
3.781	86.5276
3.765	86.4353
3.748	86.3308
3.732	86.2498
3.716	86.1233
3.7	85.992
3.685	85.8968
3.669	85.7757
3.653	85.6599
3.638	85.6209
3.623	85.4534
3.608	85.3553
3.593	85.2459
3.578	85.2342
3.563	85.0979
3.548	85.031
3.534	84.8557
3.519	84.7737
3.505	84.4168
3.491	84.7283
3.477	84.5843
3.463	84.5291
3.449	84.4475
3.435	84.1292
3.422	83.5681
3.408	83.5511
3.395	83.6936
3.382	83.4568
3.369	83.4573
3.355	83.2132
3.342	83.0515
3.33	83.012
3.317	82.867
3.304	82.7947
3.292	82.658
3.279	82.4886
3.267	82.4353
3.254	82.1834
3.242	82.1097
3.23	81.9041
3.218	81.5994
3.206	81.4734
3.194	81.2879
3.182	81.1375
3.171	81.0017
3.159	80.7547
3.148	80.4949
3.136	80.0672
3.125	79.6375
3.114	79.5457
3.102	79.6844
3.091	79.5994
3.08	79.3348
3.069	79.1238
3.058	79.116
3.048	79.1033
3.037	78.9002
3.026	78.4119
3.016	78.0398
3.005	77.3416
2.995	76.907
2.985	76.5096
2.974	75.8289
2.964	74.907
2.954	74.1131
2.944	73.4647
2.934	72.8055
2.924	72.3553
2.914	72.242
2.904	72.3885
2.895	72.5877
2.885	73.2068
2.875	73.5281
2.866	73.8719
2.856	74.3992
2.847	75.1141
2.838	75.3445
2.828	75.5398
2.819	75.7938
2.81	75.8602
2.801	76.201
2.792	76.5525
2.783	76.8836
2.774	77.1697
2.765	77.4881
2.756	77.7732
2.747	77.9891
2.739	78.2039
2.73	78.3943
2.721	78.3865
2.713	78.3045
2.704	78.3728
2.696	78.4178
2.687	78.4852
2.679	78.2547
2.671	78.3162
2.663	78.1521
2.654	78.0828
2.646	77.9617
2.638	77.9725
2.63	77.8719
2.622	77.699
2.614	77.7625
2.606	77.5906
2.599	77.4578
2.591	77.5838
2.583	77.617
2.575	77.4881
2.568	77.3006
2.56	77.1561
2.553	77.0623
2.545	76.9744
2.538	77.0486
2.53	77.0408
2.523	76.9353
2.515	76.8631
2.508	76.8475
2.501	76.6287
2.494	76.8064
2.486	76.6248
2.479	76.5623
2.472	76.4393
2.465	76.4178
2.458	76.449
2.451	76.2068
2.444	76.0506
2.437	76.0799
2.43	76.1971
2.424	76.1893
2.417	75.9959
2.41	76.2303
2.403	75.8865
2.397	75.8709
2.39	75.9842
2.384	75.658
2.377	75.4607
2.37	75.5467
2.364	75.3143
2.358	75.3377
2.351	75.6365
2.345	75.4217
2.338	75.3514
2.332	75.1502
2.326	75.1639
2.32	75.1717
2.313	74.7147
2.307	75.2439
2.301	75.0018
2.295	74.9627
2.289	74.9783
2.283	74.6814
2.277	74.6014
2.271	74.7732
2.265	74.7049
2.259	74.6482
2.253	74.6795
2.247	74.4451
2.241	74.5955
2.236	74.2654
2.23	74.2654
2.224	74.2967
2.218	74.2596
2.213	74.0486
2.207	74.1248
2.201	74.0467
2.196	74.1053
2.19	74.0193
2.185	73.8514
2.179	73.7068
2.174	73.6756
2.168	73.7537
2.163	73.785
2.157	73.9178
2.152	73.4256
2.147	73.4568
2.141	73.3553
2.136	73.2342
2.131	73.4881
2.126	73.0467
2.12	73.2225
2.115	73.1795
2.11	73.0936
2.105	73.3201
2.1	73.2889
2.095	73.1873
2.09	72.9217
2.085	72.9959
2.079	72.9373
