Name: ALHA 77271
Type: Stony Meteorites
Class: Ordinary Chondrite
Subclass: H6
Particle Size: 0-75 micrometers
Sample No.: ALHA 77256
Owner: JHU
Origin: Meteorite found in Antarctica in 1977.  Smithsonian sample No. USNM
Description: None.
Measurement: Bidirectional reflectance
X Units: Wavelength (micrometers)
Y Units: Reflectance (percent)
wavelength	value
25.044	1.2158
24.339	1.4746
23.672	1.3262
23.041	1.1753
22.442	1.0054
21.874	0.9426
21.334	0.873
20.82	0.9846
20.33	1.1536
19.863	1.2812
19.416	1.3074
18.99	1.1809
18.581	1.0979
18.19	1.1294
17.815	1.0662
17.455	1.0478
17.109	1.0566
16.777	0.9714
16.458	0.937
16.15	0.9514
15.854	0.8804
15.568	0.7488
15.292	0.686
15.027	0.7834
14.77	0.8479
14.521	0.9456
14.281	1.0435
14.049	1.113
13.824	1.105
13.607	1.2107
13.396	1.332
13.191	1.5251
12.993	1.6189
12.8	1.6106
12.614	1.5989
12.432	1.5857
12.256	1.5164
12.084	1.3093
11.918	1.1379
11.755	1.1638
11.598	1.2339
11.444	1.449
11.294	1.5002
11.149	1.4062
11.007	1.3943
10.868	1.4773
10.733	1.5703
10.602	1.5862
10.473	1.4219
10.348	1.2927
10.225	1.3447
10.106	1.2532
9.9887	1.1782
9.8746	1.1638
9.763	1.105
9.6539	1.22
9.5472	1.3506
9.4429	1.3899
9.3408	1.3142
9.2409	1.2031
9.1431	1.1736
9.0474	1.1736
8.9536	1.1248
8.8618	1.1343
8.7718	1.0955
8.6837	1.1116
8.5973	1.1182
8.5126	1.1829
8.4295	1.3123
8.3481	1.5242
8.2682	1.7515
8.1898	1.9729
8.1129	2.1191
8.0374	2.2705
7.9634	2.4165
7.8906	2.531
7.8192	2.6284
7.7491	2.7231
7.6802	2.7908
7.6126	2.8132
7.5461	2.8589
7.4807	2.8957
7.4165	2.9475
7.3534	3.0391
7.2914	3.1467
7.2303	3.2336
7.1703	3.3259
7.1113	3.4184
7.0533	3.5012
6.9962	3.5986
6.94	3.6658
6.8847	3.7109
6.8302	3.7283
6.7767	3.7522
6.7239	3.7773
6.672	3.7808
6.6209	3.7715
6.5705	3.7991
6.5209	3.8616
6.4721	3.8977
6.424	3.8996
6.3766	3.885
6.3299	3.8381
6.2838	3.8227
6.2385	3.8315
6.1937	3.8459
6.1496	3.8918
6.1062	3.8635
6.0633	3.7549
6.0211	3.6245
5.9794	3.7092
5.9383	3.8662
5.8978	3.9761
5.8578	4.0486
5.8184	4.0886
5.7794	4.1208
5.741	4.0998
5.7031	4.0181
5.6657	3.9197
5.6288	3.9187
5.5924	4.06
5.5564	4.2178
5.5209	4.2744
5.4859	4.2744
5.4513	4.2991
5.4171	4.3801
5.3833	4.4607
5.35	4.5305
5.3171	4.55
5.2846	4.5237
5.2524	4.5056
5.2207	4.4802
5.1893	4.4709
5.1584	4.4712
5.1277	4.5212
5.0975	4.582
5.0676	4.6435
5.038	4.7034
5.0088	4.7417
4.98	4.7493
4.9514	4.7795
4.9232	4.853
4.8953	4.9294
4.8678	5.0093
4.8405	5.0434
4.8135	5.1172
4.7868	5.1792
4.7605	5.248
4.7344	5.2934
4.7086	5.3247
4.6831	5.3713
4.6578	5.4184
4.6328	5.4775
4.6081	5.5317
4.5837	5.5752
4.5595	5.6081
4.5356	5.6448
4.5119	5.666
4.4884	5.6738
4.4652	5.6921
4.4423	5.7002
4.4196	5.7019
4.3971	5.7265
4.3748	5.7248
4.3528	5.74
4.331	5.738
4.3094	5.7449
4.288	5.7512
4.2668	5.7512
4.2458	5.7551
4.2251	5.7668
4.2045	5.7712
4.1841	5.7698
4.164	5.7756
4.144	5.771
4.1242	5.759
4.1046	5.7715
4.0852	5.7651
4.066	5.7732
4.047	5.7776
4.0281	5.7607
4.0094	5.7607
3.9909	5.7522
3.9725	5.7414
3.9544	5.7339
3.9363	5.72
3.9185	5.7107
3.9008	5.6968
3.8833	5.6836
3.8659	5.6716
3.8487	5.6494
3.8316	5.634
3.8147	5.6199
3.7979	5.5984
3.7813	5.5771
3.7648	5.5632
3.7485	5.5415
3.7323	5.5251
3.7162	5.4966
3.7003	5.4756
3.6845	5.4477
3.6689	5.4223
3.6534	5.4004
3.638	5.3752
3.6227	5.352
3.6076	5.3345
3.5926	5.2995
3.5777	5.2717
3.563	5.2495
3.5484	5.2102
3.5338	5.1863
3.5195	5.1567
3.5052	5.1057
3.491	5.0845
3.477	5.0669
3.463	5.0366
3.4492	5.0046
3.4355	4.9641
3.4219	4.907
3.4084	4.8833
3.395	4.8584
3.3817	4.8389
3.3685	4.8069
3.3554	4.78
3.3425	4.7419
3.3296	4.7085
3.3168	4.6699
3.3041	4.6189
3.2915	4.5801
3.279	4.5349
3.2666	4.4902
3.2543	4.4536
3.2421	4.4153
3.23	4.3669
3.218	4.332
3.206	4.281
3.1942	4.2319
3.1824	4.1877
3.1707	4.156
3.1591	4.1162
3.1476	4.0876
3.1362	4.0764
3.1249	4.0581
3.1136	4.0354
3.1024	4.0295
3.0913	4.0073
3.0803	4.0261
3.0694	4.0225
3.0585	4.0051
3.0477	4.0156
3.037	4.0141
3.0264	4.01
3.0158	4.0017
3.0053	4.0073
2.9949	4.0212
2.9845	4.0068
2.9743	4.0168
2.9641	4.0361
2.9539	4.0254
2.9439	4.0283
2.9339	4.0618
2.9239	4.0664
2.9141	4.0828
2.9043	4.1037
2.8946	4.1365
2.8849	4.1667
2.8753	4.1824
2.8658	4.2261
2.8563	4.2649
2.8469	4.3201
2.8375	4.4031
2.8282	4.4863
2.819	4.5674
2.8098	4.6247
2.8007	4.7361
2.7917	4.8274
2.7827	4.9297
2.7738	5.0383
2.7649	5.1369
2.7561	5.2539
2.7473	5.3657
2.7386	5.4675
2.7299	5.552
2.7213	5.6306
2.7128	5.7053
2.7043	5.7461
2.6959	5.7934
2.6875	5.8327
2.6791	5.8359
2.6709	5.8447
2.6626	5.8496
2.6545	5.8572
2.6463	5.855
2.6382	5.863
2.6302	5.8586
2.6222	5.8418
2.6143	5.8262
2.6064	5.8494
2.5986	5.8281
2.5908	5.8257
2.583	5.8137
2.5753	5.821
2.5677	5.7969
2.5601	5.8096
2.5525	5.793
2.545	5.7512
2.5375	5.779
2.5301	5.7666
2.5227	5.7395
2.5154	5.7563
2.5081	5.7187
2.5008	5.7346
2.4936	5.7129
2.4864	5.7092
2.4793	5.7058
2.4722	5.6753
2.4651	5.6858
2.4581	5.6841
2.4511	5.6445
2.4442	5.6321
2.4373	5.6452
2.4305	5.6348
2.4236	5.6108
2.4169	5.6079
2.4101	5.603
2.4034	5.6221
2.3967	5.5803
2.3901	5.5786
2.3835	5.5762
2.377	5.5554
2.3704	5.5146
2.364	5.5317
2.3575	5.5359
2.3511	5.5317
2.3447	5.4856
2.3384	5.4941
2.3321	5.5007
2.3258	5.4621
2.3195	5.4795
2.3133	5.4902
2.3071	5.4521
2.301	5.4668
2.2949	5.4692
2.2888	5.4575
2.2828	5.4385
2.2767	5.4338
2.2708	5.4267
2.2648	5.4319
2.2589	5.4043
2.253	5.3999
2.2471	5.4228
2.2413	5.4001
2.2355	5.4028
2.2297	5.373
2.224	5.3682
2.2183	5.3359
2.2126	5.3716
2.207	5.3296
2.2013	5.3213
2.1957	5.3188
2.1902	5.3437
2.1846	5.3408
2.1791	5.3213
2.1736	5.303
2.1682	5.3347
2.1628	5.2961
2.1574	5.2883
2.152	5.311
2.1466	5.2981
2.1413	5.2646
2.136	5.2505
2.1308	5.2866
2.1255	5.237
2.1203	5.2578
2.1151	5.2837
2.11	5.2646
2.1048	5.2746
2.0997	5.259
2.0946	5.2654
2.0895	5.2663
2.0845	5.2036
2.0795	5.2756
