Name: Kaolinite Al2Si2O5(OH)4
Type: Mineral
Class: Silicates
Subclass: Phyllosilicates (Chain Silicates); (Serpentine/Kaoline Group)
Particle Size: Fine  (Less than 2 micrometers)
Sample No.: kaolinite.3
Owner: JHU
Wavelength Range: IR
Origin: Washington Co., Georgia via Hunt and Salisbury Collection
Description: White, earthy clay. The <2 um separate is pure, well-
Measurement: Transmission
X Units: Wavelength (micrometers)
Y Units: Transmittance (percent)
wavelength	value
25.044	76.1639
24.339	59.1717
23.672	48.7538
23.041	42.3456
22.442	61.1346
21.874	52.6014
21.334	20.1503
20.82	41.664
20.33	65.5252
19.863	63.9373
19.416	55.0741
18.99	29.9335
18.581	13.5664
18.19	20.3769
17.815	34.3407
17.455	47.7284
17.109	55.742
16.777	60.868
16.458	64.3641
16.15	69.9569
15.854	71.66
15.568	70.4852
15.292	69.5067
15.027	68.077
14.77	64.202
14.521	56.953
14.281	53.1922
14.049	69.1737
13.824	78.781
13.607	78.9593
13.396	73.3909
13.191	71.9139
12.993	77.4378
12.8	77.4666
12.614	75.7757
12.432	81.2073
12.256	86.5974
12.084	88.0217
11.918	88.2049
11.755	87.4925
11.598	85.8245
11.444	81.9959
11.294	77.4183
11.149	66.055
11.007	38.8222
10.868	37.432
10.733	50.3016
10.602	55.3876
10.473	70.0067
10.348	73.1238
10.225	68.2342
10.106	49.5096
9.989	16.25
9.875	9.7842
9.763	13.8169
9.654	5.5571
9.547	19.7978
9.443	36.5429
9.341	42.6312
9.241	38.2206
9.143	27.7988
9.047	21.3769
8.954	27.9887
8.862	54.3124
8.772	68.1082
8.684	75.1995
8.597	79.4534
8.513	82.7957
8.43	85.2713
8.348	87.2842
8.268	88.9629
8.19	90.2676
8.113	91.3181
8.037	92.1433
7.963	92.7383
7.891	93.2117
7.819	93.5488
7.749	93.874
7.68	94.1628
7.613	94.4392
7.546	94.7207
7.481	94.9724
7.417	95.1492
7.353	95.3669
7.291	95.5684
7.23	95.5195
7.17	95.2625
7.111	95.4304
7.053	95.8337
6.996	95.9871
6.94	95.9258
6.885	95.9189
6.83	95.8623
6.777	95.9246
6.724	96.1472
6.672	96.2273
6.621	96.2881
6.571	96.1562
6.521	96.3289
6.472	96.1804
6.424	96.0857
6.377	96.0828
6.33	95.8538
6.284	95.6775
6.238	95.4226
6.194	95.1531
6.15	95.0498
6.106	94.8904
6.063	94.7922
6.021	94.5332
5.979	94.4177
5.938	95.2527
5.898	96.0388
5.858	96.3767
5.818	96.3123
5.779	96.5068
5.741	96.7031
5.703	96.9023
5.666	96.9832
5.629	97.0623
5.592	97.0478
5.556	97.1016
5.521	96.9119
5.486	96.7119
5.451	96.8494
5.417	96.9463
5.383	97.0608
5.35	97.2253
5.317	97.4001
5.285	97.3425
5.252	97.2371
5.221	97.1992
5.189	97.2129
5.158	97.3171
5.128	97.3379
5.097	97.5154
5.068	97.7156
5.038	97.9089
5.009	98.0496
4.98	98.2405
4.951	98.2532
4.923	98.2556
4.895	98.3215
4.868	98.4822
4.84	98.5427
4.814	98.4831
4.787	98.5579
4.76	98.6101
4.734	98.6033
4.709	98.6042
4.683	98.5608
4.658	98.5437
4.633	98.655
4.608	98.6858
4.584	98.7439
4.56	98.7429
4.536	98.7605
4.512	98.76
4.488	98.8201
4.465	98.821
4.442	98.823
4.42	98.7956
4.397	98.8215
4.375	98.9299
4.353	98.8264
4.331	98.8591
4.309	98.7917
4.288	98.8269
4.267	98.8357
4.246	98.8904
4.225	98.8874
4.205	98.8889
4.184	98.844
4.164	98.8821
4.144	98.9587
4.124	98.8205
4.105	98.8928
4.085	98.8967
4.066	98.8904
4.047	98.946
4.028	98.9724
4.009	99.0002
3.991	98.8674
3.973	98.9089
3.954	99.0339
3.936	98.9812
3.918	99.0998
3.901	99.0295
3.883	99.0056
3.866	99.031
3.849	99.137
3.832	99.0373
3.815	99.0007
3.798	99.115
3.781	99.0354
3.765	99.0334
3.748	99.0027
3.732	98.9026
3.716	99.0056
3.7	98.8498
3.685	98.969
3.669	98.8122
3.653	98.842
3.638	98.9138
3.623	98.781
3.608	98.7483
3.593	98.6931
3.578	98.6741
3.563	98.6453
3.548	98.5447
3.534	98.5974
3.519	98.6872
3.505	98.6482
3.491	98.5935
3.477	98.4841
3.463	98.4421
3.449	98.4861
3.435	98.4358
3.422	98.5017
3.408	98.2087
3.395	98.0569
3.382	97.7463
3.369	97.6584
3.355	97.4514
3.342	97.1897
3.33	97.1565
3.317	96.9163
3.304	96.8513
3.292	96.7366
3.279	96.6384
3.267	96.4988
3.254	96.2624
3.242	96.2058
3.23	95.949
3.218	95.7947
3.206	95.6208
3.194	95.3611
3.182	95.3767
3.171	95.1365
3.159	95.0242
3.148	94.8318
3.136	94.7351
3.125	94.6697
3.114	94.6091
3.102	94.572
3.091	94.5525
3.08	94.5828
3.069	94.657
3.058	94.5359
3.048	94.5359
3.037	94.4275
3.026	94.2791
3.016	94.1687
3.005	94.0584
2.995	94.0857
2.985	94.1873
2.974	94.2439
2.964	94.4421
2.954	94.6326
2.944	94.656
2.934	94.6882
2.924	94.3806
2.914	93.7927
2.904	93.7351
2.895	93.7429
2.885	93.45
2.875	93.0076
2.866	92.9255
2.856	92.8826
2.847	92.6687
2.838	92.2224
2.828	91.7039
2.819	90.9998
2.81	90.2507
2.801	89.1834
2.792	87.8318
2.783	84.9969
2.774	80.7859
2.765	60.6131
2.756	62.4588
2.747	69.2352
2.739	60.3592
2.73	64.2508
2.721	65.786
2.713	55.7001
2.704	29.6288
2.696	64.2713
2.687	85.4959
2.679	92.0398
2.671	94.657
2.663	95.8669
2.654	96.7146
2.646	97.2039
2.638	97.6345
2.63	97.8337
2.622	98.1306
2.614	98.2283
2.606	98.113
2.599	98.697
2.591	98.8162
2.583	98.8181
2.575	98.8572
2.568	98.8083
2.56	99.0818
2.553	98.9841
2.545	99.0876
2.538	99.1169
2.53	99.3162
2.523	98.9216
2.515	99.199
2.508	99.1951
2.501	99.4216
2.494	99.3708
2.486	99.4451
2.479	99.572
2.472	99.5037
2.465	99.7693
2.458	99.6814
2.451	99.574
2.444	99.6521
2.437	99.8201
2.43	99.7986
2.424	99.6247
2.417	99.8923
2.41	100.09
2.403	99.8357
2.397	99.9001
2.39	99.7146
2.384	100.062
2.377	99.9412
2.37	100.07
2.364	100.385
2.358	99.6716
2.351	100.054
2.345	99.9079
2.338	100.103
2.332	100.252
2.326	100.26
2.32	100.095
2.313	100.484
2.307	100.25
2.301	100.281
2.295	100.275
2.289	100.648
2.283	100.26
2.277	100.377
2.271	100.535
2.265	100.574
2.259	100.578
2.253	100.769
2.247	100.429
2.241	100.449
2.236	100.636
2.23	100.582
2.224	100.183
2.218	100.351
2.213	100.07
2.207	99.7029
2.201	100.769
2.196	100.734
2.19	100.597
2.185	100.484
2.179	100.25
2.174	101.164
2.168	100.461
2.163	101.023
2.157	99.8318
2.152	100.894
2.147	100.898
2.141	100.629
2.136	100.722
2.131	101.129
2.126	100.695
2.12	101.035
2.115	100.894
2.11	99.7419
2.105	101.265
2.1	101.101
2.095	100.832
2.09	100.851
2.085	101.457
2.079	100.695
