Name: Dolomite CaMg(CO3)2
Type: Mineral
Class: Carbonates
Particle Size: Coarse  (74-250 Micrometers)
Sample No.: dolomite.3
Owner: JHU
Wavelength Range: IR
Origin: Donated by Norma Vergo;  sample from Corydon, Indiana.
Description: The hand sample was massive, multicrystalline, and pink
Measurement: Bidirectional reflectance
X Units: Wavelength (micrometers)
Y Units: Reflectance (percent)
wavelength	value
25.0442	6.0718
24.3388	6.0276
23.6719	5.6079
23.0407	4.7705
22.4422	3.477
21.8741	2.1096
21.334	0.9436
20.8199	0.3928
20.33	0.2898
19.8627	0.2798
19.4163	0.3245
18.9896	0.3767
18.5812	0.4424
18.19	0.5395
17.815	0.5859
17.4551	0.7087
17.1094	0.7881
16.7772	0.9043
16.4576	1.1074
16.15	1.2781
15.8537	1.3015
15.568	1.2205
15.2925	1.2903
15.0265	1.4307
14.7697	1.5647
14.5214	1.6233
14.2814	1.5127
14.0492	1.1882
13.8244	1.0505
13.6067	0.6353
13.3957	1.4499
13.1912	2.5347
12.9929	3.2954
12.8004	3.5522
12.6135	3.75
12.432	3.8271
12.2557	3.7717
12.0843	3.5793
11.9176	3.177
11.7555	1.7441
11.5977	1.7956
11.444	1.5154
11.2944	3.3594
11.1487	5.3909
11.0067	3.1609
10.8682	2.541
10.7332	2.6182
10.6015	2.6728
10.473	2.7991
10.3476	2.7944
10.2251	2.6921
10.1056	2.5706
9.98873	2.5669
9.87458	2.4949
9.763	2.2393
9.65392	2.0994
9.54724	2.279
9.44291	2.3396
9.34082	2.011
9.24091	1.9819
9.14312	1.6604
9.04739	1.7156
8.95363	1.8252
8.8618	1.7422
8.77183	1.6714
8.68368	1.5915
8.59727	1.5605
8.51257	1.4006
8.42951	1.2849
8.34807	1.3494
8.26819	1.4272
8.18981	1.3293
8.11292	1.2815
8.03745	1.3274
7.96337	1.3564
7.89064	1.3874
7.81924	1.3857
7.74911	1.3486
7.68023	1.3691
7.61256	1.4258
7.54608	1.4561
7.48074	1.4773
7.41653	1.5486
7.35341	1.6226
7.29136	1.7168
7.23034	1.8535
7.17033	2.071
7.11132	2.406
7.05327	3.1257
6.99616	3.8144
6.93996	3.8884
6.88467	4.012
6.83024	4.2302
6.77667	4.4543
6.72393	4.7187
6.67201	5.1216
6.62089	5.8945
6.57054	6.5776
6.52095	7.0742
6.4721	7.5205
6.42398	7.7668
6.37657	7.3603
6.32986	4.7231
6.28382	3.2534
6.23845	2.3806
6.19373	1.9216
6.14965	1.3767
6.10619	0.7568
6.06334	0.3643
6.02109	0.2568
5.97942	0.2986
5.93832	0.3542
5.89778	0.426
5.8578	0.4836
5.81835	0.5286
5.77943	0.5706
5.74103	0.5989
5.70314	0.6528
5.66574	0.6589
5.62883	0.6206
5.5924	0.5747
5.55644	0.4985
5.52093	0.4287
5.48588	0.4133
5.45127	0.6902
5.41709	1.3616
5.38334	1.9853
5.35	2.4487
5.31708	2.7446
5.28456	3.1392
5.25243	3.6943
5.2207	4.2165
5.18934	4.625
5.15836	5.0378
5.12775	5.3244
5.09749	5.4717
5.0676	4.5632
5.03805	5.7097
5.00884	6.2305
4.97998	6.3743
4.95144	6.4668
4.92322	6.5466
4.89533	6.6062
4.86775	6.6489
4.84048	6.647
4.81351	6.6233
4.78684	6.5769
4.76047	6.501
4.73439	6.3179
4.70859	5.8928
4.68306	5.0107
4.65782	3.6892
4.63284	3.3188
4.60814	3.3498
4.58369	3.9438
4.5595	4.5168
4.53557	4.9155
4.51188	5.3584
4.48845	5.9202
4.46525	5.552
4.44229	5.0683
4.41957	5.3625
4.39708	5.9595
4.37481	6.4431
4.35277	6.5967
4.33096	5.8464
4.30935	5.5588
4.28797	5.4834
4.26679	5.6601
4.24583	5.803
4.22506	5.8337
4.2045	6.0447
4.18414	6.0276
4.16398	5.7385
4.14401	5.4282
4.12423	5.3545
4.10464	5.1396
4.08523	4.7422
4.066	4.1521
4.04696	3.4202
4.02809	2.5474
4.0094	1.636
3.99088	1.0378
3.97253	0.719
3.95435	0.6826
3.93634	0.6929
3.91848	0.7129
3.90079	0.8403
3.88326	0.9055
3.86589	0.989
3.84867	1.4258
3.8316	1.4311
3.81468	1.0688
3.79791	1.0623
3.78129	1.4487
3.76482	2.1194
3.74848	3.4387
3.73229	4.6941
3.71624	5.2261
3.70032	5.6462
3.68454	6.06
3.6689	6.2812
3.65338	6.4092
3.638	6.4739
3.62275	6.4692
3.60762	6.4172
3.59262	6.3362
3.57775	6.1514
3.56299	5.572
3.54836	4.561
3.53385	4.5222
3.51945	3.4319
3.50517	2.0522
3.49101	1.2148
3.47696	0.981
3.46303	0.8853
3.4492	0.8401
3.43549	0.9951
3.42188	1.1716
3.40838	1.2446
3.39499	1.3386
3.38171	1.4998
3.36852	1.4722
3.35544	1.2549
3.34246	1.1416
3.32958	1.1455
3.3168	1.0376
3.30411	1.083
3.29153	2.4321
3.27903	3.5793
3.26664	4.2016
3.25433	4.6548
3.24212	4.9888
3.23	5.2429
3.21797	5.4084
3.20603	5.5476
3.19418	5.6084
3.18241	5.6504
3.17074	5.6775
3.15914	5.6199
3.14763	5.3562
3.13621	5.1709
3.12487	5.1245
3.11361	5.072
3.10243	5.0195
3.09133	4.8664
3.0803	4.811
3.06936	4.918
3.0585	5.021
3.04771	5.0566
3.037	5.072
3.02636	5.1794
3.0158	5.279
3.00531	5.3298
2.99489	5.3142
2.98454	5.2842
2.97427	5.2917
2.96407	5.2822
2.95393	5.2873
2.94387	5.2712
2.93387	5.2783
2.92394	5.2888
2.91408	5.3203
2.90429	5.352
2.89456	5.3952
2.88489	5.4409
2.87529	5.5117
2.86576	5.5686
2.85628	5.5784
2.84687	5.615
2.83752	5.8066
2.82823	5.8992
2.81901	5.9707
2.80984	5.991
2.80073	5.9494
2.79168	5.8467
2.78269	5.6743
2.77376	5.4292
2.76488	5.5229
2.75606	5.8835
2.7473	6.2844
2.73859	6.7375
2.72994	7.1577
2.72134	7.4807
2.7128	7.8567
2.70431	8.1184
2.69587	8.1941
2.68748	8.2817
2.67915	8.5395
2.67087	8.7449
2.66264	8.9072
2.65446	9.0508
2.64633	9.1135
2.63825	9.1394
2.63021	9.1618
2.62223	9.1865
2.6143	9.2033
2.60641	9.2097
2.59857	9.2053
2.59078	9.1684
2.58304	9.1189
2.57534	9.008
2.56768	8.8574
2.56008	8.6936
2.55251	8.4419
2.54499	7.9206
2.53752	7.2131
2.53009	6.6147
2.5227	6.2595
2.51536	6.1225
2.50806	6.2195
2.5008	6.3994
2.49358	6.5801
2.4864	6.855
2.47927	7.0679
2.47218	7.1482
2.46512	7.2058
2.45811	7.3042
2.45114	7.4861
2.4442	7.7788
2.43731	8.0444
2.43045	8.2512
2.42363	8.4641
2.41685	8.6335
2.41011	8.7375
2.40341	8.7986
2.39674	8.8745
2.39011	8.9475
2.38352	8.9697
2.37696	9.062
2.37044	9.074
2.36395	9.0434
2.35751	8.9585
2.35109	8.695
2.34471	8.3125
2.33836	7.9226
2.33205	7.5825
2.32578	7.3869
2.31953	7.3706
2.31332	7.4514
2.30714	7.5527
2.301	7.6518
2.29489	7.7956
2.28881	7.9031
2.28276	7.9631
2.27675	8.0036
2.27076	8.0635
2.26481	8.1889
2.25889	8.3533
2.253	8.5337
2.24714	8.6706
2.24131	8.8215
2.23551	8.906
2.22974	8.9699
2.224	9.02
2.21829	9.0942
2.21261	9.1516
2.20696	9.2121
2.20134	9.2651
2.19574	9.3337
2.19018	9.4026
2.18464	9.4109
2.17913	9.4331
2.17365	9.4336
2.16819	9.4533
2.16277	9.4482
2.15737	9.4043
2.15199	9.4316
2.14665	9.438
2.14133	9.4165
2.13603	9.424
2.13077	9.4665
2.12552	9.4887
2.12031	9.5041
2.11512	9.5569
2.10995	9.6003
2.10481	9.6609
2.0997	9.6867
2.09461	9.7026
2.08954	9.7361
2.0845	9.7573
2.07948	9.7932
