Name: Ilmenite Fe+2TiO3
Type: Mineral
Class: Oxides
Subclass: (Hematite Group)
Particle Size: Coarse  (74-250  micrometers)
Owner: JHU
Wavelength Range: IR
Origin: Ilmen Mountains, Urals, USSR via the Smithsonian (sample no.
Description: The sample consisted of two large and several smaller
Measurement: Bidirectional reflectance
X Units: Wavelength (micrometers)
Y Units: Reflectance (percent)
wavelength	value
25.0442	10.1552
24.3388	11.4199
23.6719	12.1279
23.0407	12.7282
22.4422	12.7924
21.8741	12.469
21.334	12.1093
20.8199	12.4067
20.33	13.0312
19.8627	13.8173
19.4163	14.6342
18.9896	15.1001
18.5812	15.2439
18.19	15.1877
17.815	14.8903
17.4551	14.2834
17.1094	13.1606
16.7772	11.8315
16.4576	10.9092
16.15	10.583
15.8537	10.5852
15.568	10.7773
15.2925	11.0154
15.0265	11.3071
14.7697	11.4455
14.5214	11.2895
14.2814	10.7168
14.0492	9.966
13.8244	8.9455
13.6067	7.3821
13.3957	5.4131
13.1912	3.4871
12.9929	2.3069
12.8004	1.7873
12.6135	1.6599
12.432	1.741
12.2557	1.8816
12.0843	2.0222
11.9176	2.1663
11.7555	2.3005
11.5977	2.4487
11.444	2.5786
11.2944	2.6872
11.1487	2.78
11.0067	2.8691
10.8682	2.9365
10.7332	3.043
10.6015	3.1052
10.473	3.1638
10.3476	3.2327
10.2251	3.283
10.1056	3.3083
9.98873	3.3769
9.87458	3.4104
9.763	3.4443
9.65392	3.5029
9.54724	3.5166
9.44291	3.5906
9.34082	3.6196
9.24091	3.6467
9.14312	3.665
9.04739	3.7202
8.95363	3.7346
8.8618	3.7353
8.77183	3.7566
8.68368	3.7683
8.59727	3.8047
8.51257	3.8274
8.42951	3.834
8.34807	3.873
8.26819	3.8667
8.18981	3.9119
8.11292	3.9375
8.03745	3.9477
7.96337	3.9543
7.89064	3.9873
7.81924	3.9858
7.74911	4.0073
7.68023	4.022
7.61256	4.0305
7.54608	4.0354
7.48074	4.052
7.41653	4.0549
7.35341	4.0745
7.29136	4.0752
7.23034	4.0715
7.17033	4.073
7.11132	4.095
7.05327	4.093
6.99616	4.1081
6.93996	4.1113
6.88467	4.1179
6.83024	4.1233
6.77667	4.1528
6.72393	4.1536
6.67201	4.1543
6.62089	4.1623
6.57054	4.1633
6.52095	4.1748
6.4721	4.1885
6.42398	4.1807
6.37657	4.2036
6.32986	4.2207
6.28382	4.24
6.23845	4.2322
6.19373	4.2385
6.14965	4.238
6.10619	4.2366
6.06334	4.2471
6.02109	4.2422
5.97942	4.2414
5.93832	4.2253
5.89778	4.2351
5.8578	4.2571
5.81835	4.2502
5.77943	4.2593
5.74103	4.2563
5.70314	4.2583
5.66574	4.2532
5.62883	4.2632
5.5924	4.2685
5.55644	4.2712
5.52093	4.2861
5.48588	4.2776
5.45127	4.2937
5.41709	4.2888
5.38334	4.2886
5.35	4.2939
5.31708	4.3098
5.28456	4.3132
5.25243	4.3074
5.2207	4.3137
5.18934	4.3257
5.15836	4.3225
5.12775	4.3122
5.09749	4.3203
5.0676	4.3157
5.03805	4.3147
5.00884	4.3113
4.97998	4.3098
4.95144	4.3015
4.92322	4.3079
4.89533	4.3137
4.86775	4.3076
4.84048	4.3262
4.81351	4.3247
4.78684	4.3208
4.76047	4.3288
4.73439	4.3308
4.70859	4.3337
4.68306	4.3303
4.65782	4.3227
4.63284	4.3335
4.60814	4.3374
4.58369	4.3369
4.5595	4.3325
4.53557	4.3345
4.51188	4.3391
4.48845	4.3489
4.46525	4.3437
4.44229	4.3367
4.41957	4.3423
4.39708	4.3435
4.37481	4.3391
4.35277	4.3415
4.33096	4.3486
4.30935	4.3472
4.28797	4.343
4.26679	4.3557
4.24583	4.3425
4.22506	4.3528
4.2045	4.3452
4.18414	4.3594
4.16398	4.3567
4.14401	4.3523
4.12423	4.3625
4.10464	4.3606
4.08523	4.3721
4.066	4.365
4.04696	4.3623
4.02809	4.375
4.0094	4.3625
3.99088	4.362
3.97253	4.3667
3.95435	4.3738
3.93634	4.3706
3.91848	4.3821
3.90079	4.3721
3.88326	4.3813
3.86589	4.3801
3.84867	4.3818
3.8316	4.3818
3.81468	4.3872
3.79791	4.3828
3.78129	4.3784
3.76482	4.3909
3.74848	4.3772
3.73229	4.3826
3.71624	4.3921
3.70032	4.3916
3.68454	4.3818
3.6689	4.3838
3.65338	4.3909
3.638	4.3821
3.62275	4.3899
3.60762	4.397
3.59262	4.383
3.57775	4.3896
3.56299	4.3894
3.54836	4.396
3.53385	4.3935
3.51945	4.3938
3.50517	4.4067
3.49101	4.4036
3.47696	4.4177
3.46303	4.4055
3.4492	4.4177
3.43549	4.415
3.42188	4.4275
3.40838	4.427
3.39499	4.4119
3.38171	4.4143
3.36852	4.4177
3.35544	4.4099
3.34246	4.4021
3.32958	4.3994
3.3168	4.4097
3.30411	4.4023
3.29153	4.4036
3.27903	4.4148
3.26664	4.4138
3.25433	4.3977
3.24212	4.4099
3.23	4.4158
3.21797	4.4094
3.20603	4.4233
3.19418	4.4224
3.18241	4.4202
3.17074	4.3972
3.15914	4.4282
3.14763	4.4104
3.13621	4.4055
3.12487	4.4172
3.11361	4.4199
3.10243	4.4153
3.09133	4.4324
3.0803	4.4319
3.06936	4.4199
3.0585	4.427
3.04771	4.4243
3.037	4.4292
3.02636	4.4502
3.0158	4.4424
3.00531	4.4311
2.99489	4.4421
2.98454	4.4497
2.97427	4.4534
2.96407	4.4348
2.95393	4.4243
2.94387	4.4365
2.93387	4.4409
2.92394	4.4321
2.91408	4.4365
2.90429	4.4302
2.89456	4.4302
2.88489	4.4202
2.87529	4.4409
2.86576	4.4226
2.85628	4.4336
2.84687	4.4282
2.83752	4.4221
2.82823	4.407
2.81901	4.3933
2.80984	4.407
2.80073	4.3994
2.79168	4.415
2.78269	4.4128
2.77376	4.4097
2.76488	4.406
2.75606	4.4067
2.7473	4.3826
2.73859	4.3862
2.72994	4.397
2.72134	4.3911
2.7128	4.3728
2.70431	4.3679
2.69587	4.3533
2.68748	4.3657
2.67915	4.3708
2.67087	4.3618
2.66264	4.3677
2.65446	4.3579
2.64633	4.365
2.63825	4.3188
2.63021	4.3393
2.62223	4.3335
2.6143	4.3157
2.60641	4.3452
2.59857	4.3332
2.59078	4.3484
2.58304	4.3293
2.57534	4.3147
2.56768	4.3105
2.56008	4.3352
2.55251	4.301
2.54499	4.3154
2.53752	4.301
2.53009	4.3174
2.5227	4.3186
2.51536	4.312
2.50806	4.2827
2.5008	4.293
2.49358	4.2905
2.4864	4.2739
2.47927	4.2886
2.47218	4.2519
2.46512	4.2705
2.45811	4.2541
2.45114	4.218
2.4442	4.2602
2.43731	4.2475
2.43045	4.2475
2.42363	4.2251
2.41685	4.2463
2.41011	4.2241
2.40341	4.2317
2.39674	4.2058
2.39011	4.175
2.38352	4.2051
2.37696	4.1887
2.37044	4.1963
2.36395	4.2114
2.35751	4.1682
2.35109	4.1614
2.34471	4.1504
2.33836	4.1477
2.33205	4.1448
2.32578	4.1455
2.31953	4.1501
2.31332	4.1394
2.30714	4.1296
2.301	4.1304
2.29489	4.1404
2.28881	4.1477
2.28276	4.1255
2.27675	4.1277
2.27076	4.1267
2.26481	4.1064
2.25889	4.1601
2.253	4.0801
2.24714	4.1006
2.24131	4.0857
2.23551	4.1057
2.22974	4.0889
2.224	4.0723
2.21829	4.1225
2.21261	4.0857
2.20696	4.0862
2.20134	4.0945
2.19574	4.0815
2.19018	4.115
2.18464	4.0933
2.17913	4.0391
2.17365	4.064
2.16819	4.06
2.16277	4.0869
2.15737	4.0781
2.15199	4.0332
2.14665	4.0557
2.14133	4.1157
2.13603	4.043
2.13077	4.0542
2.12552	4.0522
2.12031	4.0647
2.11512	4.0898
2.10995	4.0705
2.10481	4.0742
2.0997	4.0923
2.09461	4.0913
2.08954	4.0664
2.0845	4.0913
2.07948	4.081
