Name: Tourmaline (Schorl) NaFe3+2Al6(BO3)3Si6O18(OH)4
Type: Mineral
Class: Silicates
Subclass: Cycloilicates (Ring Silicates)
Particle Size: Coarse  (75 - 250  Micrometers)
Sample No.: tourmal.2
Owner: JHU
Wavelength Range: IR
Origin: Minas Gerais, Brazil via the Hunt and Salisbury Collection
Description: The sample was a translucent, blue, single crystal.  It
Measurement: Bidirectional reflectance
X Units: Wavelength (micrometers)
Y Units: Reflectance (percent)
wavelength	value
25.0442	2.4961
24.3388	2.8254
23.6719	3.1643
23.0407	2.8647
22.4422	2.8064
21.8741	2.6914
21.334	2.9268
20.8199	3.3682
20.33	3.8318
19.8627	4.1199
19.4163	4.2717
18.9896	4.1133
18.5812	3.5439
18.19	3.0579
17.815	2.9014
17.4551	2.6658
17.1094	2.9353
16.7772	3.0425
16.4576	3.0422
16.15	3.6389
15.8537	2.7983
15.568	1.5991
15.2925	1.4421
15.0265	1.3769
14.7697	1.4175
14.5214	1.0652
14.2814	1.2913
14.0492	1.3726
13.8244	1.0276
13.6067	0.8184
13.3957	1.0193
13.1912	1.0439
12.9929	1.1152
12.8004	1.5146
12.6135	1.6572
12.432	0.9311
12.2557	0.8745
12.0843	0.9363
11.9176	1.0254
11.7555	1.0623
11.5977	1.092
11.444	1.2043
11.2944	1.3206
11.1487	1.3992
11.0067	1.4983
10.8682	1.6089
10.7332	1.7634
10.6015	1.917
10.473	2.1233
10.3476	2.3994
10.2251	2.7021
10.1056	2.8542
9.98873	2.7913
9.87458	2.8093
9.763	3.0105
9.65392	3.0776
9.54724	2.8994
9.44291	2.7664
9.34082	2.7507
9.24091	2.1887
9.14312	2.1614
9.04739	2.292
8.95363	2.2217
8.8618	1.9941
8.77183	0.897
8.68368	0.2439
8.59727	0.3159
8.51257	0.4524
8.42951	0.5688
8.34807	0.6836
8.26819	0.7976
8.18981	0.9077
8.11292	1.0469
8.03745	1.157
7.96337	1.3196
7.89064	1.5332
7.81924	1.6125
7.74911	1.4936
7.68023	1.417
7.61256	1.4333
7.54608	1.5972
7.48074	1.7263
7.41653	1.7878
7.35341	1.8057
7.29136	1.6345
7.23034	1.3337
7.17033	0.9744
7.11132	0.6187
7.05327	0.4199
6.99616	0.2981
6.93996	0.3127
6.88467	0.426
6.83024	0.5447
6.77667	0.6438
6.72393	0.7473
6.67201	0.8411
6.62089	0.9255
6.57054	1.0022
6.52095	1.0808
6.4721	1.1509
6.42398	1.2156
6.37657	1.2793
6.32986	1.3259
6.28382	1.3782
6.23845	1.4106
6.19373	1.4294
6.14965	1.4424
6.10619	1.4368
6.06334	1.4233
6.02109	1.4067
5.97942	1.4045
5.93832	1.3784
5.89778	1.3833
5.8578	1.448
5.81835	1.5376
5.77943	1.6301
5.74103	1.7358
5.70314	1.8389
5.66574	1.8957
5.62883	1.9045
5.5924	1.8669
5.55644	1.8254
5.52093	1.7986
5.48588	1.8425
5.45127	1.9338
5.41709	2.0295
5.38334	2.0681
5.35	2.123
5.31708	2.22
5.28456	2.2815
5.25243	2.2832
5.2207	2.3003
5.18934	2.3738
5.15836	2.404
5.12775	2.3889
5.09749	2.3643
5.0676	2.3308
5.03805	2.3308
5.00884	2.3567
4.97998	2.4109
4.95144	2.4944
4.92322	2.5857
4.89533	2.7014
4.86775	2.8476
4.84048	3.0132
4.81351	3.186
4.78684	3.3552
4.76047	3.5176
4.73439	3.6816
4.70859	3.8288
4.68306	3.9963
4.65782	4.1238
4.63284	4.2175
4.60814	4.2183
4.58369	4.1189
4.5595	3.9277
4.53557	3.7026
4.51188	3.4731
4.48845	3.2842
4.46525	3.1348
4.44229	3.0095
4.41957	2.9172
4.39708	2.8618
4.37481	2.8472
4.35277	2.8501
4.33096	2.8935
4.30935	2.9536
4.28797	3.0293
4.26679	3.1223
4.24583	3.2314
4.22506	3.3572
4.2045	3.5088
4.18414	3.7053
4.16398	3.925
4.14401	4.1687
4.12423	4.4065
4.10464	4.6394
4.08523	4.8574
4.066	5.0224
4.04696	5.1235
4.02809	5.1379
4.0094	5.0661
3.99088	4.9062
3.97253	4.6909
3.95435	4.4482
3.93634	4.227
3.91848	4.0315
3.90079	3.8362
3.88326	3.6306
3.86589	3.4094
3.84867	3.2082
3.8316	3.081
3.81468	3.0537
3.79791	3.0918
3.78129	3.1704
3.76482	3.2778
3.74848	3.406
3.73229	3.5347
3.71624	3.6536
3.70032	3.7646
3.68454	3.8826
3.6689	4.02
3.65338	4.2068
3.638	4.4258
3.62275	4.6699
3.60762	4.9307
3.59262	5.1733
3.57775	5.3364
3.56299	5.4426
3.54836	5.5517
3.53385	5.6633
3.51945	5.7532
3.50517	5.823
3.49101	5.8867
3.47696	5.904
3.46303	5.8872
3.4492	5.8733
3.43549	5.8679
3.42188	5.8974
3.40838	5.9538
3.39499	6.0273
3.38171	6.0498
3.36852	6.0571
3.35544	6.0532
3.34246	6.0271
3.32958	6.0039
3.3168	5.9682
3.30411	5.9294
3.29153	5.8926
3.27903	5.8613
3.26664	5.8074
3.25433	5.7659
3.24212	5.7134
3.23	5.6572
3.21797	5.5942
3.20603	5.5593
3.19418	5.5151
3.18241	5.4604
3.17074	5.4004
3.15914	5.3098
3.14763	5.2248
3.13621	5.1128
3.12487	4.9834
3.11361	4.8694
3.10243	4.7388
3.09133	4.5752
3.0803	4.4126
3.06936	4.2778
3.0585	4.1069
3.04771	3.9355
3.037	3.7644
3.02636	3.5659
3.0158	3.3281
3.00531	3.0796
2.99489	2.8818
2.98454	2.7629
2.97427	2.6794
2.96407	2.657
2.95393	2.6509
2.94387	2.6592
2.93387	2.644
2.92394	2.5732
2.91408	2.4221
2.90429	2.1497
2.89456	1.8662
2.88489	1.6252
2.87529	1.4397
2.86576	1.3938
2.85628	1.4148
2.84687	1.446
2.83752	1.4468
2.82823	1.3496
2.81901	1.1992
2.80984	1.2021
2.80073	1.314
2.79168	1.637
2.78269	2.199
2.77376	2.8923
2.76488	3.291
2.75606	2.0373
2.7473	2.0801
2.73859	2.7517
2.72994	4.2446
2.72134	4.1118
2.7128	4.3013
2.70431	4.7309
2.69587	5.0273
2.68748	4.4722
2.67915	4.8044
2.67087	5.5635
2.66264	5.8042
2.65446	5.8459
2.64633	5.8047
2.63825	5.7851
2.63021	5.7263
2.62223	5.6514
2.6143	5.6023
2.60641	5.5852
2.59857	5.583
2.59078	5.5491
2.58304	5.5383
2.57534	5.5163
2.56768	5.4912
2.56008	5.4919
2.55251	5.4687
2.54499	5.4682
2.53752	5.4709
2.53009	5.4333
2.5227	5.3791
2.51536	5.3762
2.50806	5.3628
2.5008	5.3725
2.49358	5.3469
2.4864	5.3848
2.47927	5.4431
2.47218	5.4963
2.46512	5.5486
2.45811	5.6047
2.45114	5.689
2.4442	5.7571
2.43731	5.7817
2.43045	5.7585
2.42363	5.6899
2.41685	5.6037
2.41011	5.5229
2.40341	5.3874
2.39674	5.2143
2.39011	4.8848
2.38352	4.5915
2.37696	4.4099
2.37044	4.5508
2.36395	4.927
2.35751	5.2593
2.35109	5.4978
2.34471	5.6631
2.33836	5.6951
2.33205	5.708
2.32578	5.718
2.31953	5.6511
2.31332	5.4573
2.30714	5.2764
2.301	5.3386
2.29489	5.6201
2.28881	5.8826
2.28276	6.0356
2.27675	6.0654
2.27076	5.9599
2.26481	5.7761
2.25889	5.4053
2.253	4.9431
2.24714	4.779
2.24131	5.1062
2.23551	5.5137
2.22974	5.6548
2.224	5.6684
2.21829	5.5491
2.21261	5.2942
2.20696	4.9758
2.20134	4.9416
2.19574	5.1975
2.19018	5.5493
2.18464	5.7717
2.17913	5.8826
2.17365	5.9223
2.16819	5.956
2.16277	5.9739
2.15737	5.9973
2.15199	5.9516
2.14665	5.9809
2.14133	5.9751
2.13603	6.0032
2.13077	5.9787
2.12552	5.9587
2.12031	5.958
2.11512	5.9565
2.10995	5.9167
2.10481	5.9429
2.0997	5.9294
2.09461	5.946
2.08954	5.9055
2.0845	5.8747
2.07948	5.8611
