Name: Rhyolite
Type: Rocks
Class: Igneous
Subclass: Felsic
Particle Size: Solid
Sample No.: Rhyolite.H1
Owner: JHU
Origin: From Pennsylvania Hill near Rosita, Custer County, Colorado, via
Description: A reddish, banded, porphyritic rock with the phenocrysts small
Measurement: Directional (10 degree) hemispherical reflectance
X Units: Wavelength (micrometers)
Y Units: Reflectance (percent)
wavelength	value
14.0112	2.8969
13.7147	4.7119
13.4304	5.2088
13.1577	4.5068
12.8959	5.5382
12.6443	4.7653
12.4023	3.6023
12.1694	4.1163
11.945	4.9823
11.7289	5.6615
11.5203	6.2864
11.3191	7.0556
11.1248	7.8347
10.937	8.7155
10.7555	9.7289
10.5799	10.8696
10.4099	12.3347
10.2454	14.3465
10.0859	16.327
9.9313	18.2181
9.7814	19.2145
9.636	19.7911
9.4948	19.4651
9.3577	19.2972
9.2245	24.3051
9.095	26.9404
8.9691	27.306
8.8467	26.8748
8.7275	26.3472
8.6116	24.7157
8.4986	21.239
8.3886	15.9356
8.2814	13.0935
8.1769	9.0841
8.075	6.0862
7.9756	4.4475
7.8786	3.1481
7.784	2.1623
7.6916	1.6596
7.6014	1.4236
7.5133	1.3694
7.4272	1.3202
7.343	1.32
7.2607	1.3903
7.1803	1.4653
7.1016	1.5251
7.0246	1.5841
6.9493	1.6164
6.8755	1.6894
6.8034	1.7255
6.7327	1.8654
6.6634	1.89
6.5956	1.9657
6.5292	2.014
6.464	2.0772
6.4002	2.0946
6.3376	2.0683
6.2762	2.0533
6.216	2.0314
6.157	2.0447
6.099	2.0751
6.0421	2.2083
5.9863	2.2502
5.9315	2.3498
5.8777	2.4541
5.8249	2.4799
5.773	2.519
5.722	2.5177
5.6719	2.5561
5.6227	2.5924
5.5744	2.7026
5.5268	2.7434
5.4801	2.8343
5.4341	2.8594
5.3889	2.805
5.3445	2.6763
5.3008	2.734
5.2578	2.9316
5.2154	3.2075
5.1738	3.4955
5.1328	3.6431
5.0925	3.6633
5.0528	3.6447
5.0137	3.6192
4.9752	3.6849
4.9373	3.9213
4.9	4.4768
4.8632	5.0604
4.827	5.5835
4.7913	5.9203
4.7561	6.1821
4.7215	6.3825
4.6873	6.5473
4.6536	6.7263
4.6205	7.0096
4.5877	7.4379
4.5555	7.856
4.5237	8.2847
4.4923	8.7021
4.4614	9.0086
4.4309	9.1999
4.4008	9.4397
4.3711	9.9605
4.3418	10.7388
4.3129	11.6311
4.2844	12.419
4.2563	13.1531
4.2285	13.8021
4.2011	14.1776
4.174	14.5075
4.1473	14.9161
4.1209	15.3363
4.0949	15.7692
4.0692	16.2218
4.0438	16.5951
4.0187	16.9256
3.994	17.1684
3.9695	17.2903
3.9453	17.3798
3.9214	17.4386
3.8979	17.44
3.8746	17.3995
3.8515	17.3153
3.8288	17.2305
3.8063	17.0264
3.7841	16.6706
3.7621	16.3017
3.7404	15.8875
3.7189	15.5866
3.6977	15.322
3.6767	15.0084
3.656	14.6027
3.6355	14.1722
3.6152	13.7023
3.5951	13.1885
3.5753	12.618
3.5557	12.0584
3.5363	11.3716
3.5171	10.0364
3.4981	8.5969
3.4793	9.1186
3.4607	8.8734
3.4423	8.0716
3.4241	6.5397
3.4061	6.9178
3.3883	7.2857
3.3707	7.1951
3.3533	7.3709
3.336	7.2272
3.3189	7.0306
3.302	6.847
3.2853	6.5836
3.2687	6.3574
3.2523	6.1615
3.2361	5.9707
3.22	5.7862
3.204	5.6421
3.1883	5.4696
3.1727	5.3177
3.1572	5.1971
3.1419	5.0489
3.1268	4.9221
3.1117	4.8405
3.0969	4.7538
3.0821	4.7501
3.0675	4.6739
3.0531	4.6755
3.0388	4.605
3.0246	4.5834
3.0105	4.552
2.9966	4.5309
2.9828	4.4484
2.9692	4.4436
2.9556	4.4506
2.9422	4.3908
2.9289	4.4426
2.9157	4.4294
2.9027	4.4527
2.8897	4.5106
2.8769	4.5602
2.8642	4.5729
2.8516	4.6554
2.8391	4.7137
2.8267	4.8049
2.8144	4.9525
2.8022	4.9701
2.7902	5.0423
2.7782	5.1286
2.7664	5.2828
2.7546	5.4363
2.7429	5.9437
2.7314	6.6846
2.7199	7.9971
2.7085	9.5041
2.6973	12.775
2.6861	17.0568
2.675	20.0533
2.664	22.4148
2.6531	23.7726
2.6423	24.7909
2.6315	25.5885
2.6209	26.0067
2.6103	26.3688
2.5999	26.6671
2.5895	26.9524
2.5792	27.0358
2.569	27.135
2.5588	27.249
2.5487	27.4516
2.5388	27.501
2.5289	27.6536
2.519	27.891
2.5093	28.142
2.4996	28.3568
2.49	28.6213
2.4805	28.9124
2.471	29.3001
2.4616	29.5809
2.4523	29.9132
2.4431	30.288
2.4339	30.7766
2.4248	31.2754
2.4157	31.5262
2.4068	31.8674
2.3979	32.0591
2.389	32.2504
2.3802	32.4519
2.3715	32.7051
2.3629	32.864
2.3543	32.9184
2.3458	32.9123
2.3373	33.1331
2.3289	32.9966
2.3206	32.9849
2.3123	32.6488
2.3041	32.7828
2.2959	32.9155
2.2878	32.9784
2.2798	33.0726
2.2718	33.1386
2.2638	33.1105
2.2559	33.2399
2.2481	33.1405
2.2403	33.2503
2.2326	33.1256
2.225	33.0449
2.2173	32.9774
2.2098	32.5068
2.2023	33.0332
2.1948	33.2048
2.1874	33.441
2.18	33.644
2.1727	33.7643
2.1655	33.921
2.1583	33.978
2.1511	34.1038
2.144	34.1917
2.1369	34.128
2.1299	34.3523
2.1229	34.2332
2.116	34.1962
2.1091	34.1324
2.1023	34.1628
2.0955	34.0438
2.0887	34.0427
2.082	33.8701
2.06	33.7478
2.028	33.3966
1.996	32.3632
1.964	31.489
1.932	29.9648
1.9	28.5105
1.868	33.0717
1.836	34.0716
1.804	33.6623
1.772	33.0826
1.74	33.2258
1.708	33.2446
1.676	33.2772
1.644	33.2843
1.612	33.3433
1.58	33.175
1.548	32.8735
1.516	32.9357
1.484	32.5815
1.452	32.5083
1.42	32.2675
1.388	32.5606
1.356	33.3476
1.324	33.644
1.292	33.4881
1.26	33.9029
1.228	33.8443
1.196	33.8446
1.164	33.6562
1.132	33.1772
1.1	32.9967
1.068	32.4602
1.036	31.1769
1.004	29.4184
0.972	27.3275
0.94	25.3683
0.908	24.0245
0.876	23.4368
0.844	23.2472
0.812	22.857
0.795	21.1461
0.787	20.8767
0.779	20.6473
0.771	20.2291
0.763	20.0553
0.755	19.6942
0.747	19.2666
0.739	18.8267
0.731	18.7558
0.723	18.4042
0.715	18.1302
0.707	17.7509
0.699	17.541
0.691	17.093
0.683	17.1639
0.675	16.8331
0.667	16.4974
0.659	16.6865
0.651	16.1637
0.643	16.1024
0.635	15.8892
0.627	15.6339
0.619	15.2566
0.611	15.0838
0.603	15.3513
0.595	14.4381
0.587	13.8579
0.579	13.3311
0.571	12.4571
0.563	11.7647
0.555	11.1304
0.547	10.5745
0.539	10.2131
0.531	9.8455
0.523	10.0342
0.515	9.5719
0.507	9.8977
0.499	9.6032
0.491	9.3953
0.483	9.856
0.475	9.569
0.467	9.5127
0.459	9.7273
0.451	9.619
0.443	9.5481
0.435	9.7152
0.427	9.6861
0.419	9.8589
0.411	9.9705
0.403	9.9724
