Name: ALH 84007
Type: Stony Meteorites
Class: Achondrite
Subclass: Aubrite
Particle Size: 0-75 micrometers
Sample No.: ALH 84007
Owner: JHU
Origin: Meteorite found in Antarctica in 1984.  Smithsonian sample USNM No.
Description: None.
Measurement: Bidirectional reflectance
X Units: Wavelength (micrometers)
Y Units: Reflectance (percent)
wavelength	value
25.044	0.845
24.339	0.7707
23.672	0.7673
23.041	1.0105
22.442	0.9514
21.874	0.9055
21.334	0.7957
20.82	0.9238
20.33	0.9458
19.863	1.1746
19.416	1.2632
18.99	1.1233
18.581	0.9548
18.19	1.0266
17.815	0.8391
17.455	0.8972
17.109	1.0525
16.777	1.137
16.458	1.1379
16.15	0.9331
15.854	0.5876
15.568	0.3914
15.292	0.3159
15.027	0.3477
14.77	0.4807
14.521	0.5464
14.281	0.7327
14.049	0.8645
13.824	0.6365
13.607	0.634
13.396	0.9121
13.191	1.5439
12.993	1.8835
12.8	1.9841
12.614	1.9241
12.432	1.8291
12.256	1.6548
12.084	1.3835
11.918	1.0832
11.755	1.0466
11.598	1.158
11.444	1.0767
11.294	0.6863
11.149	0.7498
11.007	0.7424
10.868	0.8628
10.733	1.0662
10.602	1.1311
10.473	1.228
10.348	1.2324
10.225	1.1035
10.106	0.9263
9.9887	0.812
9.8746	0.8511
9.763	0.7009
9.6539	0.5344
9.5472	0.8376
9.4429	0.9878
9.3408	1.0859
9.2409	1.1599
9.1431	1.2039
9.0474	1.3015
8.9536	1.396
8.8618	1.3562
8.7718	1.4036
8.6837	0.9041
8.5973	0.7986
8.5126	0.481
8.4295	0.3535
8.3481	0.3359
8.2682	0.3965
8.1898	0.5027
8.1129	0.6719
8.0374	0.8926
7.9634	1.146
7.8906	1.4087
7.8192	1.6926
7.7491	1.9695
7.6802	2.1958
7.6126	2.4358
7.5461	2.6824
7.4807	2.9172
7.4165	3.1033
7.3534	3.2419
7.2914	3.3096
7.2303	3.3455
7.1703	3.3811
7.1113	3.3809
7.0533	3.3789
6.9962	3.3777
6.94	3.4377
6.8847	3.5105
6.8302	3.5889
6.7767	3.6294
6.7239	3.6103
6.672	3.5129
6.6209	3.6182
6.5705	3.8989
6.5209	4.1006
6.4721	4.2373
6.424	4.2964
6.3766	4.1731
6.3299	4.0293
6.2838	4.093
6.2385	4.103
6.1937	4.0054
6.1496	4.0735
6.1062	4.1448
6.0633	4.1179
6.0211	4.2432
5.9794	4.7065
5.9383	5.2519
5.8978	5.6008
5.8578	5.6514
5.8184	5.7353
5.7794	5.8428
5.741	5.8342
5.7031	5.8867
5.6657	6.0693
5.6288	6.3425
5.5924	6.4792
5.5564	6.6057
5.5209	6.581
5.4859	6.375
5.4513	6.3618
5.4171	6.5942
5.3833	6.8772
5.35	7.001
5.3171	6.9756
5.2846	6.8547
5.2524	6.7903
5.2207	6.6777
5.1893	6.3459
5.1584	5.8999
5.1277	5.7097
5.0975	5.8249
5.0676	6.0937
5.038	6.3642
5.0088	6.6037
4.98	6.8406
4.9514	6.957
4.9232	6.9092
4.8953	6.8901
4.8678	6.8108
4.8405	6.718
4.8135	6.779
4.7868	6.9663
4.7605	7.1389
4.7344	7.4182
4.7086	7.7058
4.6831	7.8459
4.6578	7.9021
4.6328	7.9817
4.6081	8.2058
4.5837	8.4646
4.5595	8.647
4.5356	8.8137
4.5119	8.9702
4.4884	9.0476
4.4652	9.0735
4.4423	9.0857
4.4196	9.0964
4.3971	9.0998
4.3748	9.1059
4.3528	9.1084
4.331	9.113
4.3094	9.1208
4.288	9.1303
4.2668	9.1509
4.2458	9.165
4.2251	9.1836
4.2045	9.1963
4.1841	9.2077
4.164	9.2197
4.144	9.2348
4.1242	9.2314
4.1046	9.2444
4.0852	9.249
4.066	9.2541
4.047	9.248
4.0281	9.2265
4.0094	9.2092
3.9909	9.1802
3.9725	9.1714
3.9544	9.1682
3.9363	9.1667
3.9185	9.1728
3.9008	9.1753
3.8833	9.1699
3.8659	9.1609
3.8487	9.1516
3.8316	9.1318
3.8147	9.1181
3.7979	9.1054
3.7813	9.093
3.7648	9.0859
3.7485	9.0676
3.7323	9.0515
3.7162	9.0222
3.7003	8.9941
3.6845	8.9563
3.6689	8.9211
3.6534	8.8896
3.638	8.8542
3.6227	8.8159
3.6076	8.7783
3.5926	8.7373
3.5777	8.6894
3.563	8.635
3.5484	8.5791
3.5338	8.5183
3.5195	8.4328
3.5052	8.3359
3.491	8.2981
3.477	8.251
3.463	8.2073
3.4492	8.1462
3.4355	8.0644
3.4219	7.9607
3.4084	7.9101
3.395	7.9023
3.3817	7.8537
3.3685	7.8198
3.3554	7.7825
3.3425	7.7429
3.3296	7.6902
3.3168	7.6316
3.3041	7.5686
3.2915	7.5032
3.279	7.4346
3.2666	7.373
3.2543	7.311
3.2421	7.2344
3.23	7.1623
3.218	7.0888
3.206	7.0215
3.1942	6.9424
3.1824	6.8764
3.1707	6.8042
3.1591	6.7373
3.1476	6.6509
3.1362	6.5874
3.1249	6.5105
3.1136	6.4512
3.1024	6.3921
3.0913	6.3367
3.0803	6.2888
3.0694	6.2554
3.0585	6.216
3.0477	6.1787
3.037	6.1389
3.0264	6.0852
3.0158	6.0422
3.0053	5.9846
2.9949	5.935
2.9845	5.8774
2.9743	5.8288
2.9641	5.7683
2.9539	5.7026
2.9439	5.633
2.9339	5.6008
2.9239	5.6267
2.9141	5.6684
2.9043	5.7021
2.8946	5.7322
2.8849	5.7612
2.8753	5.7644
2.8658	5.7864
2.8563	5.792
2.8469	5.8161
2.8375	5.8369
2.8282	5.8437
2.819	5.8703
2.8098	5.9292
2.8007	6.0281
2.7917	6.1418
2.7827	6.2441
2.7738	6.3515
2.7649	6.4839
2.7561	6.6294
2.7473	6.7876
2.7386	6.9404
2.7299	7.043
2.7213	7.0141
2.7128	7.1721
2.7043	7.5688
2.6959	8.0112
2.6875	8.404
2.6791	8.7436
2.6709	8.9236
2.6626	9.0244
2.6545	9.0439
2.6463	9.0637
2.6382	9.0666
2.6302	9.0508
2.6222	9.0647
2.6143	9.0632
2.6064	9.0554
2.5986	9.0434
2.5908	9.032
2.583	9.0268
2.5753	9.0049
2.5677	9.0193
2.5601	8.9868
2.5525	8.9824
2.545	8.9687
2.5375	8.9573
2.5301	8.9643
2.5227	8.936
2.5154	8.9248
2.5081	8.9016
2.5008	8.8977
2.4936	8.8867
2.4864	8.8838
2.4793	8.8713
2.4722	8.8808
2.4651	8.8733
2.4581	8.8904
2.4511	8.8589
2.4442	8.855
2.4373	8.8442
2.4305	8.8398
2.4236	8.8379
2.4169	8.8247
2.4101	8.8288
2.4034	8.823
2.3967	8.8154
2.3901	8.8076
2.3835	8.7961
2.377	8.7961
2.3704	8.7868
2.364	8.7746
2.3575	8.7688
2.3511	8.7756
2.3447	8.7641
2.3384	8.7507
2.3321	8.7553
2.3258	8.7402
2.3195	8.7378
2.3133	8.7429
2.3071	8.74
2.301	8.7563
2.2949	8.7595
2.2888	8.7402
2.2828	8.7121
2.2767	8.738
2.2708	8.747
2.2648	8.7402
2.2589	8.7466
2.253	8.7458
2.2471	8.7588
2.2413	8.7673
2.2355	8.7566
2.2297	8.7339
2.224	8.7605
2.2183	8.7766
2.2126	8.7395
2.207	8.7732
2.2013	8.7715
2.1957	8.77
2.1902	8.78
2.1846	8.7939
2.1791	8.7854
2.1736	8.781
2.1682	8.7912
2.1628	8.7959
2.1574	8.8015
2.152	8.8032
2.1466	8.8259
2.1413	8.8196
2.136	8.8362
2.1308	8.8506
2.1255	8.8406
2.1203	8.8574
2.1151	8.8469
2.11	8.8196
2.1048	8.8196
2.0997	8.8425
2.0946	8.8525
2.0895	8.8161
2.0845	8.8557
2.0795	8.8078
