Name: Serpentine Marble
Type: Rocks
Class: Metamorphic
Subclass: Marble
Particle Size: 0-75 Micrometer
Owner: JHU
Wavelength Range: All
Origin: Sample No. 460, The Hunt and Salisbury Collection at the U.S.
Description: This sample consists of coarse-grained anhedral carbonate with
Measurement: Directional (10 Degree) Hemispherical Reflectance
X Units: Wavelength (micrometers)
Y Units: Reflectance (percent)
wavelength	value
14.983	5.1976
14.645	6.1106
14.321	7.5206
14.011	2.6071
13.715	4.3176
13.43	9.4994
13.158	11.614
12.896	12.465
12.644	13.464
12.402	14.153
12.169	15.44
11.945	16.852
11.729	13.011
11.52	8.1098
11.319	4.8071
11.125	11.809
10.937	9.4302
10.755	6.7097
10.58	5.1294
10.41	4.5201
10.245	4.4775
10.086	4.7062
9.931	5.1709
9.781	5.981
9.636	6.8281
9.495	7.3444
9.358	7.6352
9.225	7.8282
9.095	10.99
8.969	18.096
8.847	20.816
8.727	20.77
8.612	18.089
8.499	16.961
8.389	17.404
8.281	19.181
8.177	18.935
8.075	18.17
7.976	18.707
7.879	18.027
7.784	17.139
7.692	15.656
7.601	13.494
7.513	12.28
7.427	10.696
7.343	8.4411
7.261	5.825
7.18	4.419
7.102	4.5049
7.025	4.5428
6.949	4.2137
6.875	4.1947
6.803	4.3766
6.733	4.6925
6.663	5.2871
6.596	6.2891
6.529	7.7879
6.464	9.8655
6.4	10.527
6.338	8.7108
6.276	6.6595
6.216	6.2155
6.157	6.21
6.099	6.5475
6.042	7.6051
5.986	8.9732
5.931	10.389
5.878	11.796
5.825	12.534
5.773	12.763
5.722	13.91
5.672	15.801
5.623	15.877
5.574	5.0733
5.527	11.502
5.48	16.795
5.434	26.566
5.389	31.683
5.345	35.091
5.301	38.032
5.258	40.394
5.215	42.165
5.174	43.169
5.133	43.547
5.093	42.422
5.053	43.496
5.014	43.929
4.975	44.789
4.937	45.575
4.9	46.55
4.863	47.415
4.827	47.177
4.791	47.631
4.756	48.514
4.721	47.296
4.687	42.507
4.654	41.801
4.62	45.489
4.588	47.669
4.556	49.008
4.524	49.888
4.492	51.075
4.461	51.964
4.431	52.646
4.401	53.734
4.371	54.343
4.342	53.805
4.313	53.469
4.284	53.591
4.256	53.81
4.229	53.788
4.201	53.916
4.174	53.428
4.147	52.333
4.121	50.802
4.095	48.539
4.069	44.758
4.044	37.034
4.019	24.703
3.994	13.43
3.97	10.074
3.945	14.506
3.921	18.742
3.898	21.616
3.875	22.822
3.852	25.148
3.829	28.875
3.806	32.404
3.784	41.075
3.762	46.977
3.74	51.05
3.719	52.327
3.698	52.534
3.677	52.818
3.656	52.499
3.636	51.956
3.615	51.208
3.595	49.864
3.575	46.88
3.556	44.769
3.536	40.074
3.517	29.076
3.498	22.124
3.479	17.805
3.461	21.814
3.442	23.806
3.424	25.428
3.406	25.389
3.388	25.003
3.371	24.47
3.353	21.414
3.336	28.436
3.319	31.953
3.302	33.621
3.285	38.493
3.269	38.971
3.252	38.921
3.236	38.48
3.22	38.05
3.204	37.449
3.188	36.61
3.173	35.617
3.157	34.306
3.142	33.23
3.127	32.331
3.112	31.274
3.097	30.539
3.082	30.072
3.067	29.506
3.053	28.784
3.039	28.032
3.025	27.287
3.011	26.46
2.997	25.622
2.983	24.804
2.969	24.014
2.956	23.209
2.942	22.577
2.929	22.107
2.916	21.861
2.903	21.765
2.89	21.724
2.877	21.743
2.864	21.532
2.852	21.208
2.839	20.651
2.827	19.687
2.814	18.624
2.802	18.046
2.79	18.315
2.778	18.134
2.766	17.858
2.755	16.697
2.743	13.706
2.731	13.034
2.72	10.767
2.708	9.8463
2.697	22.283
2.686	42.431
2.675	53.664
2.664	57.904
2.653	58.884
2.642	60.726
2.632	61.208
2.621	61.231
2.61	60.989
2.6	60.784
2.59	60.178
2.579	59.532
2.569	58.689
2.559	57.147
2.549	56.223
2.539	54.713
2.529	54.71
2.519	54.466
2.509	53.946
2.5	54.992
2.49	56.467
2.481	56.815
2.471	58.575
2.462	59.855
2.452	60.074
2.443	59.405
2.434	59.375
2.425	60.556
2.416	60.594
2.407	60.885
2.398	61.033
2.389	61.492
2.38	61.685
2.372	61.614
2.363	62.119
2.354	61.217
2.346	58.605
2.337	55.484
2.329	55.49
2.321	56.072
2.312	58.122
2.304	59.598
2.296	60.568
2.288	61.299
2.28	61.948
2.272	61.938
2.264	63.673
2.256	64.492
2.248	64.62
2.24	65.04
2.233	66.229
2.225	67.101
2.217	67.392
2.21	67.671
2.202	67.793
2.195	67.773
2.187	67.888
2.18	67.893
2.173	67.829
2.166	67.808
2.158	67.785
2.151	67.539
2.144	67.363
2.137	67.165
2.13	67.015
2.123	67.306
2.116	67.192
2.109	67.155
2.102	67.34
2.095	67.464
2.089	67.627
2.082	67.733
2.06	68.243
2.028	66.607
1.996	65.013
1.964	63.943
1.932	63.668
1.9	64.648
1.868	66.177
1.836	66.802
1.804	66.695
1.772	66.219
1.74	65.937
1.708	66.524
1.676	66.397
1.644	66.038
1.612	65.425
1.58	65.704
1.548	65.368
1.516	64.467
1.484	63.752
1.452	63.533
1.42	62.931
1.388	58.529
1.356	62.41
1.324	62.321
1.292	61.785
1.26	61.444
1.228	60.854
1.196	60.531
1.164	59.876
1.132	59.113
1.1	59.067
1.068	58.407
1.036	59.265
1.004	58.903
0.972	58.679
0.94	58.449
0.908	58.222
0.876	57.893
0.844	57.644
0.812	57.54
0.795	57.302
0.787	57.009
0.779	56.813
0.771	56.424
0.763	56.664
0.755	56.275
0.747	55.985
0.739	55.496
0.731	55.734
0.723	55.443
0.715	55.439
0.707	55.243
0.699	55.971
0.691	56.02
0.683	55.92
0.675	56.271
0.667	56.12
0.659	56.829
0.651	56.42
0.643	56.929
0.635	56.57
0.627	56.769
0.619	56.881
0.611	57.841
0.603	57.133
0.595	56.944
0.587	57.002
0.579	57.312
0.571	57.747
0.563	56.885
0.555	56.242
0.547	55.93
0.539	56.356
0.531	55.04
0.523	55.162
0.515	54.695
0.507	54.58
0.499	53.694
0.491	53.28
0.483	52.778
0.475	51.35
0.467	49.166
0.459	48.572
0.451	47.671
0.443	46.58
0.435	46.444
0.427	46.458
0.419	46.421
0.411	45.527
0.403	45.357
