Name: Pyrrhotite, Fe(1-x)S
Type: Mineral
Class: Sulfides
Particle Size: Fine  (Less than 2  Micrometers)
Sample No.: pyrrhot.1
Owner: JHU
Wavelength Range: IR
Origin: Stoneham, Maine, USA via the Smithsonian (sample no. NMNH
Description: The sample consisted of two large fragments and many
Measurement: Transmission
X Units: Wavelength (micrometers)
Y Units: Transmittance (percent)
wavelength	value
25.0442	57.3026
24.3388	53.6522
23.6719	52.1449
23.0407	52.224
22.4422	51.9315
21.8741	50.9789
21.334	49.3417
20.8199	48.8514
20.33	48.0551
19.8627	47.3148
19.4163	46.5602
18.9896	45.702
18.5812	44.9135
18.19	44.5338
17.815	43.8495
17.4551	43.0541
17.1094	41.9481
16.7772	41.026
16.4576	40.185
16.15	39.4418
15.8537	39.1083
15.568	38.7448
15.2925	38.5211
15.0265	37.9342
14.7697	37.3524
14.5214	36.7045
14.2814	36.1073
14.0492	35.5219
13.8244	34.9628
13.6067	34.4701
13.3957	34.2062
13.1912	33.7126
12.9929	33.2423
12.8004	32.8053
12.6135	32.5368
12.432	32.2629
12.2557	31.9091
12.0843	31.6198
11.9176	31.1789
11.7555	30.4352
11.5977	29.4228
11.444	29.4792
11.2944	29.3151
11.1487	28.9313
11.0067	28.3586
10.8682	27.7778
10.7332	27.4897
10.6015	27.2087
10.473	26.8217
10.3476	26.2348
10.2251	25.59
10.1056	24.9535
9.98873	24.4023
9.87458	23.7856
9.763	23.2338
9.65392	23.1135
9.54724	22.8613
9.44291	22.5441
9.34082	22.403
9.24091	22.2512
9.14312	22.1726
9.04739	22.1347
8.95363	21.9067
8.8618	21.8215
8.77183	21.5527
8.68368	21.3427
8.59727	21.1667
8.51257	21.029
8.42951	20.8623
8.34807	20.7585
8.26819	20.653
8.18981	20.4921
8.11292	20.2863
8.03745	20.0573
7.96337	19.7905
7.89064	19.5688
7.81924	19.2897
7.74911	18.999
7.68023	18.7111
7.61256	18.4494
7.54608	18.1909
7.48074	17.906
7.41653	17.6113
7.35341	17.3418
7.29136	17.0324
7.23034	16.6262
7.17033	16.1606
7.11132	15.6328
7.05327	15.3708
6.99616	15.2067
6.93996	15.0271
6.88467	15.0654
6.83024	15.1992
6.77667	15.2163
6.72393	15.1965
6.67201	15.2192
6.62089	15.1796
6.57054	15.042
6.52095	14.8686
6.4721	14.7209
6.42398	14.5329
6.37657	14.3901
6.32986	14.2282
6.28382	14.0461
6.23845	13.6953
6.19373	13.2883
6.14965	13.084
6.10619	13.176
6.06334	13.1831
6.02109	12.9685
5.97942	13.0744
5.93832	13.446
5.89778	13.5442
5.8578	13.4682
5.81835	13.3425
5.77943	13.228
5.74103	13.1145
5.70314	13.0053
5.66574	12.865
5.62883	12.7595
5.5924	12.6391
5.55644	12.5236
5.52093	12.4174
5.48588	12.3274
5.45127	12.2248
5.41709	12.1201
5.38334	12.021
5.35	11.924
5.31708	11.8357
5.28456	11.7392
5.25243	11.6567
5.2207	11.551
5.18934	11.4778
5.15836	11.3681
5.12775	11.3064
5.09749	11.2038
5.0676	11.123
5.03805	11.0422
5.00884	10.9516
4.97998	10.8728
4.95144	10.7885
4.92322	10.7155
4.89533	10.6384
4.86775	10.5456
4.84048	10.4909
4.81351	10.4055
4.78684	10.3401
4.76047	10.2915
4.73439	10.1985
4.70859	10.1374
4.68306	10.0727
4.65782	9.9873
4.63284	9.935
4.60814	9.8645
4.58369	9.7998
4.5595	9.7241
4.53557	9.6704
4.51188	9.612
4.48845	9.551
4.46525	9.5029
4.44229	9.4416
4.41957	9.3813
4.39708	9.3252
4.37481	9.2761
4.35277	9.2136
4.33096	9.1401
4.30935	9.0952
4.28797	9.0483
4.26679	8.9724
4.24583	8.9316
4.22506	8.8694
4.2045	8.8515
4.18414	8.7895
4.16398	8.7246
4.14401	8.6902
4.12423	8.6318
4.10464	8.594
4.08523	8.5093
4.066	8.4741
4.04696	8.4231
4.02809	8.3899
4.0094	8.3218
3.99088	8.2861
3.97253	8.2556
3.95435	8.2107
3.93634	8.1389
3.91848	8.1172
3.90079	8.0818
3.88326	8.039
3.86589	7.9834
3.84867	7.9426
3.8316	7.906
3.81468	7.8659
3.79791	7.8293
3.78129	7.7654
3.76482	7.7419
3.74848	7.718
3.73229	7.6672
3.71624	7.6255
3.70032	7.5913
3.68454	7.5561
3.6689	7.5144
3.65338	7.4773
3.638	7.4504
3.62275	7.394
3.60762	7.3542
3.59262	7.3213
3.57775	7.2932
3.56299	7.2514
3.54836	7.2141
3.53385	7.1833
3.51945	7.1452
3.50517	7.1235
3.49101	7.1035
3.47696	7.0403
3.46303	7.0327
3.4492	7.0041
3.43549	6.9551
3.42188	6.956
3.40838	6.9148
3.39499	6.8847
3.38171	6.8535
3.36852	6.8132
3.35544	6.7788
3.34246	6.7392
3.32958	6.7168
3.3168	6.6579
3.30411	6.6335
3.29153	6.6213
3.27903	6.5859
3.26664	6.5442
3.25433	6.5024
3.24212	6.487
3.23	6.4321
3.21797	6.3931
3.20603	6.3586
3.19418	6.3376
3.18241	6.2861
3.17074	6.2654
3.15914	6.2143
3.14763	6.1894
3.13621	6.1526
3.12487	6.125
3.11361	6.0725
3.10243	6.091
3.09133	6.06
3.0803	6.0232
3.06936	5.9912
3.0585	5.9883
3.04771	5.9538
3.037	5.9119
3.02636	5.8945
3.0158	5.854
3.00531	5.8093
2.99489	5.7671
2.98454	5.7114
2.97427	5.6733
2.96407	5.5854
2.95393	5.5239
2.94387	5.4844
2.93387	5.4331
2.92394	5.3894
2.91408	5.3628
2.90429	5.3542
2.89456	5.3804
2.88489	5.4228
2.87529	5.439
2.86576	5.4712
2.85628	5.4834
2.84687	5.5151
2.83752	5.5176
2.82823	5.5124
2.81901	5.543
2.80984	5.5083
2.80073	5.5351
2.79168	5.542
2.78269	5.5508
2.77376	5.5674
2.76488	5.5588
2.75606	5.5503
2.7473	5.5657
2.73859	5.5859
2.72994	5.5669
2.72134	5.5254
2.7128	5.509
2.70431	5.4712
2.69587	5.498
2.68748	5.4487
2.67915	5.4326
2.67087	5.4272
2.66264	5.4126
2.65446	5.3779
2.64633	5.3677
2.63825	5.3291
2.63021	5.3266
2.62223	5.3174
2.6143	5.2685
2.60641	5.29
2.59857	5.2641
2.59078	5.2444
2.58304	5.24
2.57534	5.1904
2.56768	5.1897
2.56008	5.1909
2.55251	5.1462
2.54499	5.135
2.53752	5.1206
2.53009	5.1311
2.5227	5.0981
2.51536	5.0803
2.50806	5.0769
2.5008	5.051
2.49358	5.0217
2.4864	5.0295
2.47927	5.0144
2.47218	4.9897
2.46512	4.9692
2.45811	4.9592
2.45114	4.9575
2.4442	4.9612
2.43731	4.9465
2.43045	4.9194
2.42363	4.9184
2.41685	4.8989
2.41011	4.8608
2.40341	4.8838
2.39674	4.8577
2.39011	4.8596
2.38352	4.8245
2.37696	4.7842
2.37044	4.8105
2.36395	4.7754
2.35751	4.7971
2.35109	4.7637
2.34471	4.7256
2.33836	4.7844
2.33205	4.7073
2.32578	4.7405
2.31953	4.7522
2.31332	4.6787
2.30714	4.6704
2.301	4.6904
2.29489	4.6282
2.28881	4.6753
2.28276	4.6731
2.27675	4.5742
2.27076	4.6145
2.26481	4.5937
2.25889	4.5576
2.253	4.6055
2.24714	4.5754
2.24131	4.5803
2.23551	4.54
2.22974	4.5588
2.224	4.5703
2.21829	4.553
2.21261	4.5557
2.20696	4.4944
2.20134	4.5735
2.19574	4.543
2.19018	4.4912
2.18464	4.4985
2.17913	4.4385
2.17365	4.4717
2.16819	4.4883
2.16277	4.4497
2.15737	4.397
2.15199	4.4009
2.14665	4.4331
2.14133	4.435
2.13603	4.3828
2.13077	4.3735
2.12552	4.3652
2.12031	4.4272
2.11512	4.3696
2.10995	4.352
2.10481	4.3618
2.0997	4.3081
2.09461	4.3306
2.08954	4.3706
2.0845	4.3291
2.07948	4.3286
