Name: Illite (K,H3O)(Al,Mg,Fe)2(Si,Al)4O10[(OH)2,H2O]
Type: Mineral
Class: Silicates
Subclass: Phyllosilicates (Sheet Silicates); (Mica Group)
Particle Size: Fine  (Less than 2 Micrometer)
Sample No.: illite.1
Owner: JHU
Wavelength Range: IR
Origin: Silver Hill, Montana via Clay Mineral Society, Source Clay
Description: The sample was a greenish, earthy clay.  The bulk
Measurement: Transmission
X Units: Wavelength (micrometers)
Y Units: Transmittance (percent)
wavelength	value
25.0442	74.3357
24.3388	59.3436
23.6719	47.6405
23.0407	45.7987
22.4422	48.453
21.8741	40.4218
21.334	26.1132
20.8199	32.5507
20.33	43.6503
19.8627	43.5917
19.4163	37.4882
18.9896	34.1298
18.5812	38.0351
18.19	45.5712
17.815	51.6131
17.4551	60.2791
17.1094	68.1219
16.7772	73.8719
16.4576	77.201
16.15	78.9803
15.8537	81.1453
15.568	83.6219
15.2925	84.1629
15.0265	83.8435
14.7697	83.3162
14.5214	83.3689
14.2814	84.3797
14.0492	86.3465
13.8244	87.4646
13.6067	87.2224
13.3957	85.1619
13.1912	84.6487
12.9929	86.7425
12.8004	87.0315
12.6135	86.7366
12.432	85.2283
12.2557	83.3811
12.0843	80.6033
11.9176	82.7146
11.7555	84.7918
11.5977	83.7068
11.444	81.0203
11.2944	78.7601
11.1487	74.2581
11.0067	65.6131
10.8682	64.6414
10.7332	65.3866
10.6015	63.9793
10.473	57.2054
10.3476	44.7699
10.2251	29.7646
10.1056	18.4824
9.98873	12.7837
9.87458	10.145
9.763	9.4111
9.65392	11.0127
9.54724	17.5376
9.44291	23.9555
9.34082	28.079
9.24091	32.0546
9.14312	36.6415
9.04739	42.8007
8.95363	50.1063
8.8618	59.4515
8.77183	68.8968
8.68368	75.7112
8.59727	80.2952
8.51257	84.2044
8.42951	87.093
8.34807	89.3074
8.26819	90.6631
8.18981	91.6462
8.11292	92.3252
8.03745	92.9236
7.96337	93.3875
7.89064	93.6736
7.81924	93.9705
7.74911	94.21
7.68023	94.3826
7.61256	94.583
7.54608	94.8506
7.48074	95.0813
7.41653	95.1797
7.35341	95.3604
7.29136	95.4871
7.23034	95.5818
7.17033	95.2507
7.11132	95.2148
7.05327	95.3213
6.99616	95.4089
6.93996	95.4941
6.88467	95.7197
6.83024	95.8848
6.77667	95.9402
6.72393	96.1113
6.67201	96.282
6.62089	96.3623
6.57054	96.4929
6.52095	96.5342
6.4721	96.5234
6.42398	96.5566
6.37657	96.407
6.32986	96.2263
6.28382	96.033
6.23845	95.6482
6.19373	94.8948
6.14965	94.3806
6.10619	94.4724
6.06334	94.822
6.02109	95.1834
5.97942	95.239
5.93832	95.7842
5.89778	96.1326
5.8578	96.3162
5.81835	96.5369
5.77943	96.6521
5.74103	96.7498
5.70314	96.7712
5.66574	96.804
5.62883	96.8308
5.5924	96.7715
5.55644	96.7637
5.52093	96.7676
5.48588	96.7803
5.45127	96.8672
5.41709	96.9431
5.38334	96.9326
5.35	97.0352
5.31708	97.1218
5.28456	97.1621
5.25243	97.2683
5.2207	97.3613
5.18934	97.3914
5.15836	97.5029
5.12775	97.572
5.09749	97.6133
5.0676	97.6201
5.03805	97.6721
5.00884	97.6858
4.97998	97.7351
4.95144	97.7595
4.92322	97.7566
4.89533	97.7966
4.86775	97.8318
4.84048	97.9206
4.81351	97.8694
4.78684	97.9104
4.76047	97.9094
4.73439	97.9597
4.70859	97.9206
4.68306	97.9587
4.65782	97.9607
4.63284	97.9797
4.60814	97.9582
4.58369	98.0198
4.5595	98.0505
4.53557	97.9817
4.51188	97.9705
4.48845	98.0281
4.46525	97.9958
4.44229	98.0061
4.41957	98.0271
4.39708	98.0408
4.37481	98.0749
4.35277	98.0413
4.33096	98.0447
4.30935	98.0369
4.28797	98.0466
4.26679	98.0647
4.24583	98.1023
4.22506	98.0945
4.2045	98.0339
4.18414	98.0608
4.16398	98.0749
4.14401	98.0564
4.12423	98.0388
4.10464	98.0832
4.08523	98.1238
4.066	98.0666
4.04696	98.1169
4.02809	98.116
4.0094	98.0632
3.99088	98.012
3.97253	98.0359
3.95435	98.1077
3.93634	98.1018
3.91848	98.1746
3.90079	98.1604
3.88326	98.0627
3.86589	98.1013
3.84867	98.1677
3.8316	98.1003
3.81468	98.1003
3.79791	98.1218
3.78129	98.1643
3.76482	98.0901
3.74848	98.0525
3.73229	98.0437
3.71624	98.0701
3.70032	98.0007
3.68454	98.0496
3.6689	98.0652
3.65338	98.0452
3.638	98.074
3.62275	98.0251
3.60762	97.9983
3.59262	97.9636
3.57775	97.9861
3.56299	98.0037
3.54836	97.9924
3.53385	98.0178
3.51945	98.094
3.50517	98.3845
3.49101	98.1912
3.47696	98.0535
3.46303	98.0154
3.4492	98.1995
3.43549	98.2932
3.42188	98.6038
3.40838	98.3245
3.39499	97.9372
3.38171	97.8245
3.36852	97.5881
3.35544	97.3611
3.34246	97.2146
3.32958	97.1018
3.3168	97.0212
3.30411	97.0002
3.29153	96.9548
3.27903	96.8904
3.26664	96.7693
3.25433	96.656
3.24212	96.5427
3.23	96.3953
3.21797	96.2351
3.20603	96.0671
3.19418	95.947
3.18241	95.7175
3.17074	95.6033
3.15914	95.4998
3.14763	95.2322
3.13621	95.1179
3.12487	94.906
3.11361	94.7693
3.10243	94.5896
3.09133	94.5701
3.0803	94.5642
3.06936	94.4802
3.0585	94.2693
3.04771	94.1873
3.037	93.9587
3.02636	93.7576
3.0158	93.4656
3.00531	93.324
2.99489	93.0584
2.98454	92.9158
2.97427	92.6531
2.96407	92.2556
2.95393	92.1609
2.94387	92.1072
2.93387	92.0164
2.92394	92.0212
2.91408	91.9841
2.90429	92.1882
2.89456	92.3992
2.88489	92.7273
2.87529	93.0154
2.86576	93.2117
2.85628	93.4685
2.84687	93.3953
2.83752	92.9744
2.82823	92.1755
2.81901	91.1648
2.80984	90.3279
2.80073	89.1414
2.79168	87.3279
2.78269	84.908
2.77376	81.7185
2.76488	79.7351
2.75606	79.8182
2.7473	82.868
2.73859	85.7732
2.72994	89.0603
2.72134	92.6443
2.7128	94.4255
2.70431	94.0076
2.69587	96.6287
2.68748	97.782
2.67915	98.0779
2.67087	98.363
2.66264	98.4812
2.65446	98.5115
2.64633	98.3396
2.63825	98.4978
2.63021	98.6208
2.62223	98.7693
2.6143	98.7361
2.60641	98.7048
2.59857	98.8845
2.59078	98.9841
2.58304	98.9665
2.57534	98.9724
2.56768	98.863
2.56008	98.9236
2.55251	98.906
2.54499	99.0622
2.53752	99.1345
2.53009	99.0056
2.5227	98.9451
2.51536	99.031
2.50806	99.0583
2.5008	99.0857
2.49358	99.0173
2.4864	99.0974
2.47927	99.281
2.47218	99.1482
2.46512	99.1677
2.45811	99.2849
2.45114	99.2927
2.4442	99.197
2.43731	99.4548
2.43045	99.2204
2.42363	99.1111
2.41685	99.2224
2.41011	99.5095
2.40341	99.3122
2.39674	99.2537
2.39011	99.2146
2.38352	99.2497
2.37696	99.4724
2.37044	99.3552
2.36395	99.3318
2.35751	99.2576
2.35109	99.3122
2.34471	99.072
2.33836	99.1892
2.33205	99.3982
2.32578	99.2537
2.31953	99.0486
2.31332	99.2966
2.30714	99.322
2.301	99.3279
2.29489	99.4997
2.28881	99.4001
2.28276	99.3923
2.27675	99.3747
2.27076	99.363
2.26481	99.2458
2.25889	99.3357
2.253	99.238
2.24714	99.0349
2.24131	99.0818
2.23551	99.2654
2.22974	98.8708
2.224	98.8279
2.21829	99.1247
2.21261	99.0115
2.20696	98.7419
2.20134	99.0505
2.19574	99.0076
2.19018	98.9763
2.18464	98.9529
2.17913	98.7849
2.17365	98.8787
2.16819	98.949
2.16277	99.2029
2.15737	98.7576
2.15199	99.0622
2.14665	98.7497
2.14133	98.7888
2.13603	98.8591
2.13077	98.9724
2.12552	98.5466
2.12031	99.0388
2.11512	98.7341
2.10995	98.4919
2.10481	98.3513
2.0997	99.0622
2.09461	98.6912
2.08954	98.3982
2.0845	99.2068
2.07948	98.4568
