Name: Dolomite CaMg(CO3)2
Type: Mineral
Class: Carbonates
Particle Size: Solid (fracture surface)
Sample No.: dolomite.3
Owner: JHU
Wavelength Range: IR
Origin: Donated by Norma Vergo;  sample from Corydon, Indiana.
Description: The hand sample was massive, multicrystalline, and pink
Measurement: Bidirectional reflectance
X Units: Wavelength (micrometers)
Y Units: Reflectance (percent)
wavelength	value
25.0442	21.6835
24.3388	20.9033
23.6719	19.247
23.0407	15.7382
22.4422	10.6762
21.8741	5.748
21.334	2.1475
20.8199	0.7266
20.33	0.7412
19.8627	0.8674
19.4163	0.9983
18.9896	1.1829
18.5812	1.3401
18.19	1.5276
17.815	1.6562
17.4551	1.8176
17.1094	1.9609
16.7772	2.0745
16.4576	2.1985
16.15	2.2952
15.8537	2.3867
15.568	2.4658
15.2925	2.5337
15.0265	2.6194
14.7697	2.6785
14.5214	2.7937
14.2814	2.8984
14.0492	3.0781
13.8244	3.5723
13.6067	1.8159
13.3957	2.5005
13.1912	2.7324
12.9929	2.8906
12.8004	2.9971
12.6135	3.1025
12.432	3.1704
12.2557	3.2617
12.0843	3.3677
11.9176	3.4863
11.7555	3.6728
11.5977	4.0261
11.444	5.4761
11.2944	12.1103
11.1487	14.5131
11.0067	3.6968
10.8682	3.0332
10.7332	3.0566
10.6015	3.1235
10.473	3.1824
10.3476	3.2324
10.2251	3.2856
10.1056	3.3022
9.98873	3.3481
9.87458	3.3762
9.763	3.3931
9.65392	3.417
9.54724	3.4531
9.44291	3.479
9.34082	3.4963
9.24091	3.5207
9.14312	3.5381
9.04739	3.5796
8.95363	3.6162
8.8618	3.6665
8.77183	3.728
8.68368	3.7734
8.59727	3.8476
8.51257	3.8962
8.42951	3.9563
8.34807	4.0261
8.26819	4.1138
8.18981	4.1941
8.11292	4.2573
8.03745	4.3613
7.96337	4.4634
7.89064	4.5793
7.81924	4.7068
7.74911	4.8418
7.68023	4.9682
7.61256	5.1438
7.54608	5.3362
7.48074	5.5522
7.41653	5.8244
7.35341	6.1931
7.29136	6.6526
7.23034	7.2356
7.17033	8.1489
7.11132	9.6728
7.05327	12.1833
6.99616	14.7121
6.93996	15.1196
6.88467	15.6023
6.83024	16.2561
6.77667	16.8796
6.72393	17.5998
6.67201	18.738
6.62089	21.0148
6.57054	22.7941
6.52095	24.1569
6.4721	25.3212
6.42398	26.0405
6.37657	24.935
6.32986	16.3437
6.28382	10.7715
6.23845	7.3554
6.19373	5.3713
6.14965	3.4514
6.10619	1.7961
6.06334	0.7502
6.02109	0.4468
5.97942	0.498
5.93832	0.5981
5.89778	0.6882
5.8578	0.7832
5.81835	0.8767
5.77943	0.9619
5.74103	1.0403
5.70314	1.1177
5.66574	1.1811
5.62883	1.2434
5.5924	1.303
5.55644	1.3401
5.52093	1.3518
5.48588	1.2859
5.45127	1.3579
5.41709	1.4902
5.38334	1.584
5.35	1.6638
5.31708	1.709
5.28456	1.7725
5.25243	1.8479
5.2207	1.925
5.18934	1.9976
5.15836	2.0874
5.12775	2.1487
5.09749	2.1902
5.0676	2.0813
5.03805	2.2893
5.00884	2.3975
4.97998	2.446
4.95144	2.4841
4.92322	2.5225
4.89533	2.5601
4.86775	2.5901
4.84048	2.6079
4.81351	2.6279
4.78684	2.6423
4.76047	2.6592
4.73439	2.6472
4.70859	2.5935
4.68306	2.49
4.65782	2.3574
4.63284	2.3425
4.60814	2.352
4.58369	2.4224
4.5595	2.4954
4.53557	2.5561
4.51188	2.6262
4.48845	2.7205
4.46525	2.6794
4.44229	2.6208
4.41957	2.668
4.39708	2.7756
4.37481	2.8679
4.35277	2.9114
4.33096	2.7854
4.30935	2.7634
4.28797	2.7637
4.26679	2.8018
4.24583	2.8398
4.22506	2.8564
4.2045	2.9038
4.18414	2.9116
4.16398	2.8884
4.14401	2.8511
4.12423	2.852
4.10464	2.8347
4.08523	2.7908
4.066	2.7476
4.04696	2.6504
4.02809	2.5872
4.0094	2.4924
3.99088	2.4307
3.97253	2.3455
3.95435	2.2759
3.93634	2.2651
3.91848	2.2566
3.90079	2.3054
3.88326	2.3276
3.86589	2.3491
3.84867	2.4375
3.8316	2.4582
3.81468	2.4058
3.79791	2.3862
3.78129	2.457
3.76482	2.5444
3.74848	2.7202
3.73229	2.8779
3.71624	2.957
3.70032	3.0351
3.68454	3.1072
3.6689	3.1562
3.65338	3.1851
3.638	3.2109
3.62275	3.2148
3.60762	3.2031
3.59262	3.1953
3.57775	3.1785
3.56299	3.0898
3.54836	2.9365
3.53385	2.9429
3.51945	2.8061
3.50517	2.6499
3.49101	2.5386
3.47696	2.4873
3.46303	2.4565
3.4492	2.4321
3.43549	2.4695
3.42188	2.5161
3.40838	2.5391
3.39499	2.5522
3.38171	2.5832
3.36852	2.5872
3.35544	2.5515
3.34246	2.5376
3.32958	2.5325
3.3168	2.509
3.30411	2.4934
3.29153	2.7053
3.27903	2.8474
3.26664	2.9377
3.25433	3.0012
3.24212	3.0537
3.23	3.1006
3.21797	3.1184
3.20603	3.1467
3.19418	3.1587
3.18241	3.1787
3.17074	3.2065
3.15914	3.1953
3.14763	3.166
3.13621	3.1448
3.12487	3.1562
3.11361	3.1321
3.10243	3.1435
3.09133	3.1125
3.0803	3.1167
3.06936	3.1311
3.0585	3.1516
3.04771	3.1721
3.037	3.1721
3.02636	3.1875
3.0158	3.2139
3.00531	3.2256
2.99489	3.2114
2.98454	3.2075
2.97427	3.2405
2.96407	3.248
2.95393	3.2366
2.94387	3.2207
2.93387	3.2317
2.92394	3.2307
2.91408	3.2363
2.90429	3.2656
2.89456	3.2815
2.88489	3.2861
2.87529	3.2844
2.86576	3.3196
2.85628	3.301
2.84687	3.3105
2.83752	3.3545
2.82823	3.3945
2.81901	3.3928
2.80984	3.4033
2.80073	3.3809
2.79168	3.3628
2.78269	3.3467
2.77376	3.2886
2.76488	3.3154
2.75606	3.3833
2.7473	3.4683
2.73859	3.5513
2.72994	3.6553
2.72134	3.7593
2.7128	3.8711
2.70431	3.9487
2.69587	3.9829
2.68748	4.0034
2.67915	4.0864
2.67087	4.1523
2.66264	4.2285
2.65446	4.2666
2.64633	4.293
2.63825	4.3096
2.63021	4.3115
2.62223	4.3208
2.6143	4.3242
2.60641	4.3183
2.59857	4.3227
2.59078	4.3135
2.58304	4.2817
2.57534	4.1997
2.56768	4.1665
2.56008	4.1172
2.55251	4.0351
2.54499	3.8481
2.53752	3.6133
2.53009	3.459
2.5227	3.3809
2.51536	3.3047
2.50806	3.352
2.5008	3.3555
2.49358	3.3965
2.4864	3.4673
2.47927	3.5644
2.47218	3.6235
2.46512	3.5767
2.45811	3.5976
2.45114	3.6509
2.4442	3.7392
2.43731	3.8574
2.43045	3.9424
2.42363	3.96
2.41685	4.0039
2.41011	4.0664
2.40341	4.0654
2.39674	4.1152
2.39011	4.124
2.38352	4.1221
2.37696	4.1514
2.37044	4.1387
2.36395	4.1709
2.35751	4.0596
2.35109	4.001
2.34471	3.8769
2.33836	3.6641
2.33205	3.6172
2.32578	3.5508
2.31953	3.54
2.31332	3.5586
2.30714	3.6152
2.301	3.6172
2.29489	3.6738
2.28881	3.7285
2.28276	3.7666
2.27675	3.7627
2.27076	3.7226
2.26481	3.8174
2.25889	3.8711
2.253	3.959
2.24714	4.0049
2.24131	4.043
2.23551	4.0752
2.22974	4.1445
2.224	4.1182
2.21829	4.1719
2.21261	4.1807
2.20696	4.2305
2.20134	4.2773
2.19574	4.2812
2.19018	4.3291
2.18464	4.2851
2.17913	4.2676
2.17365	4.3369
2.16819	4.2851
2.16277	4.3281
2.15737	4.3408
2.15199	4.3359
2.14665	4.3516
2.14133	4.3574
2.13603	4.3721
2.13077	4.3994
2.12552	4.3711
2.12031	4.3994
2.11512	4.3603
2.10995	4.3916
2.10481	4.4385
2.0997	4.4932
2.09461	4.458
2.08954	4.4922
2.0845	4.5391
2.07948	4.5312
