Name: Arkosic Sandstone
Type: Rocks
Class: Sedimentary
Subclass: Sandstone
Particle Size: 500 - 1500 Micrometers
Sample No.: sandstone.1
Owner: JHU
Wavelength Range: All
Origin: Sample No. 362,  The Hunt and Salisbury Collection at the U.S.
Description: Sample is moderately sorted fine medium-grained rock
Measurement: Directional (10 Degree) Hemispherical Reflectance
X Units: Wavelength (micrometers)
Y Units: Reflectance (percent)
wavelength	value
14.011	2.4548
13.715	2.745
13.43	3.0902
13.158	3.685
12.896	5.607
12.644	4.6122
12.402	3.1766
12.169	1.2808
11.945	1.9567
11.729	2.3894
11.52	2.7407
11.319	3.0104
11.125	3.178
10.937	3.4049
10.756	3.5298
10.58	3.837
10.41	4.2045
10.245	4.6887
10.086	5.221
9.931	5.8735
9.781	6.9018
9.636	8.3967
9.495	10.9097
9.358	18.3385
9.225	20.4096
9.095	18.7887
8.969	17.3492
8.847	17.2289
8.727	16.6826
8.612	13.15
8.499	18.0924
8.389	19.1602
8.281	21.2558
8.177	23.3391
8.075	16.2549
7.976	9.353
7.879	4.4708
7.784	2.4648
7.692	1.4298
7.601	0.8877
7.513	0.7197
7.427	0.6402
7.343	0.5896
7.261	0.618
7.18	0.6685
7.102	0.7338
7.025	0.736
6.949	0.7664
6.875	0.7893
6.803	0.8152
6.733	0.8449
6.663	0.8709
6.596	0.9352
6.529	0.9433
6.464	0.9979
6.4	1.018
6.338	0.9309
6.276	0.9204
6.216	0.8759
6.157	0.9138
6.099	0.9941
6.042	1.0693
5.986	1.1051
5.931	1.1116
5.878	1.2132
5.825	1.3812
5.773	1.552
5.722	1.7011
5.672	1.5892
5.623	1.3745
5.574	1.3382
5.527	1.3994
5.48	1.5102
5.434	1.5518
5.389	1.364
5.345	1.2912
5.301	1.3279
5.258	1.3925
5.215	1.6102
5.174	1.6617
5.133	1.6647
5.093	1.6597
5.053	1.6184
5.014	1.6136
4.975	1.7258
4.937	1.9803
4.9	2.6789
4.863	4.6665
4.827	6.3765
4.791	7.7313
4.756	8.7925
4.721	9.143
4.687	7.6742
4.654	9.1945
4.62	11.357
4.588	12.2275
4.556	11.7803
4.524	9.4159
4.492	6.9248
4.461	6.5375
4.431	7.4739
4.401	8.7896
4.371	10.7747
4.342	12.5287
4.313	12.923
4.284	12.6878
4.256	13.4579
4.229	13.7864
4.201	14.1245
4.174	14.8634
4.147	15.7036
4.121	16.6202
4.095	17.7172
4.069	18.4678
4.044	18.4946
4.019	18.1644
3.994	17.8773
3.97	18.1816
3.945	19.1867
3.921	19.6447
3.898	19.3911
3.875	18.8142
3.852	18.4118
3.829	18.3812
3.806	18.3405
3.784	17.8892
3.762	17.116
3.74	16.5002
3.719	16.3245
3.698	16.3774
3.677	16.3906
3.656	16.1717
3.636	15.6541
3.615	15.0641
3.595	14.5023
3.575	13.931
3.556	13.2446
3.536	12.3627
3.517	11.5424
3.498	11.1176
3.479	10.6793
3.461	10.1667
3.442	9.6098
3.424	9.2803
3.406	8.8049
3.388	8.2986
3.371	7.8598
3.353	7.5397
3.336	7.304
3.319	6.937
3.302	6.5315
3.285	6.1068
3.269	5.7381
3.252	5.4072
3.236	5.111
3.22	4.7842
3.204	4.5468
3.188	4.3086
3.173	4.0739
3.157	3.8738
3.142	3.7118
3.127	3.5329
3.112	3.4142
3.097	3.3252
3.082	3.2421
3.067	3.2194
3.053	3.1022
3.039	3.0783
3.025	3.0843
3.011	3.0056
2.997	2.9792
2.983	2.9161
2.969	2.8974
2.956	2.7859
2.942	2.8108
2.929	2.8587
2.916	2.9586
2.903	2.9038
2.89	2.9359
2.877	3.0902
2.864	3.1261
2.852	3.2421
2.839	3.2941
2.827	3.3869
2.814	3.5099
2.802	3.5547
2.79	3.4836
2.778	3.5319
2.766	3.5827
2.755	4.2014
2.743	5.0587
2.731	6.613
2.72	9.1894
2.708	11.6526
2.697	17.2031
2.686	22.8302
2.675	26.7688
2.664	29.9136
2.653	31.9925
2.642	33.464
2.632	34.5545
2.621	35.3601
2.61	35.8637
2.6	36.2898
2.59	36.5004
2.579	36.5972
2.569	36.8882
2.559	37.2198
2.549	37.4768
2.539	37.877
2.529	38.2364
2.519	38.5833
2.509	38.9025
2.5	39.349
2.49	39.8215
2.481	40.5356
2.471	41.3664
2.462	42.1688
2.452	43.055
2.443	43.951
2.434	45.0761
2.425	46.1872
2.416	47.1566
2.407	48.0221
2.398	48.4608
2.389	48.613
2.38	48.9051
2.372	49.5562
2.363	49.7947
2.354	49.8272
2.346	50.1091
2.337	50.3445
2.329	50.3151
2.321	50.238
2.312	50.1723
2.304	50.2895
2.296	50.291
2.288	50.2495
2.28	50.1394
2.272	49.962
2.264	49.9165
2.256	49.7975
2.248	49.826
2.24	49.8428
2.233	49.9339
2.225	49.7019
2.217	49.1774
2.21	46.5087
2.202	48.6396
2.195	49.5425
2.187	50.7989
2.18	52.3612
2.173	53.3728
2.166	54.0503
2.158	54.7071
2.151	55.6211
2.144	57.065
2.137	57.6559
2.13	58.0505
2.123	58.0625
2.116	58.3433
2.109	58.4366
2.102	58.5333
2.095	58.5046
2.089	58.485
2.082	58.3644
2.06	58.3851
2.028	57.8482
1.996	54.9396
1.964	51.6402
1.932	48.6687
1.9	49.3537
1.868	60.5977
1.836	63.9294
1.804	63.8027
1.772	63.6838
1.74	63.6977
1.708	63.7888
1.676	64.0583
1.644	64.1017
1.612	63.6545
1.58	63.5903
1.548	62.6539
1.516	61.1218
1.484	59.7453
1.452	58.5824
1.42	56.9921
1.388	57.6054
1.356	60.7156
1.324	60.897
1.292	60.3501
1.26	59.659
1.228	59.0763
1.196	58.6
1.164	57.5971
1.132	56.3084
1.1	54.776
1.068	53.7026
1.036	52.9556
1.004	52.3887
0.972	51.1814
0.94	50.7021
0.908	49.9583
0.876	49.4601
0.844	48.5868
0.812	48.3736
0.795	48.5035
0.787	48.0715
0.779	48.1331
0.771	47.6566
0.763	47.5803
0.755	47.2093
0.747	46.9657
0.739	46.6447
0.731	45.8452
0.723	45.2661
0.715	45.2581
0.707	44.8771
0.699	44.489
0.691	43.6247
0.683	43.8558
0.675	43.5445
0.667	42.9406
0.659	42.2612
0.651	42.1081
0.643	41.7823
0.635	41.1135
0.627	41.2022
0.619	40.6387
0.611	40.3674
0.603	40.0882
0.595	39.6079
0.587	39.8014
0.579	38.8999
0.571	38.2343
0.563	37.2815
0.555	35.7406
0.547	34.9054
0.539	33.7858
0.531	32.4726
0.523	31.1088
0.515	29.9802
0.507	28.543
0.499	27.8179
0.491	26.9136
0.483	26.1002
0.475	25.6045
0.467	25.2726
0.459	24.0949
0.451	23.9769
0.443	23.0595
0.435	21.8186
0.427	20.7631
0.419	19.5618
0.411	18.6225
0.403	17.9652
