Name: Spodumene LiAlSi2O6
Type: Mineral
Class: Silicates
Subclass: Inosilicates (Framework silicates); Pyroxene Group
Particle Size: Coarse  (75 - 250  Micrometers)
Sample No.: spodum.1
Owner: JHU
Wavelength Range: IR
Origin: Anita Mine, Pala Chief Hill, Pala, San Diego Co., California, USA
Description: The hand sample was 3 cm x 1 cm x 1 cm, transparent,
Measurement: Bidirectional reflectance
X Units: Wavelength (micrometers)
Y Units: Reflectance (percent)
wavelength	value
25.0442	4.8642
24.3388	3.6699
23.6719	3.6819
23.0407	3.9719
22.4422	5.0696
21.8741	5.8535
21.334	7.4094
20.8199	8.5522
20.33	8.1914
19.8627	6.0495
19.4163	5.3882
18.9896	5.7971
18.5812	6.1262
18.19	6.1186
17.815	5.5857
17.4551	6.1091
17.1094	6.6831
16.7772	7.3325
16.4576	7.2055
16.15	5.9787
15.8537	4.7305
15.568	3.6018
15.2925	3.2075
15.0265	3.0923
14.7697	2.3096
14.5214	1.2461
14.2814	0.9629
14.0492	1.1516
13.8244	1.2861
13.6067	1.4324
13.3957	1.5564
13.1912	1.6475
12.9929	1.7102
12.8004	1.7466
12.6135	1.8223
12.432	1.9155
12.2557	2.0483
12.0843	2.1272
11.9176	2.2622
11.7555	2.5127
11.5977	2.6504
11.444	2.1789
11.2944	2.4795
11.1487	2.8638
11.0067	3.3921
10.8682	3.9778
10.7332	4.4233
10.6015	4.7143
10.473	4.9033
10.3476	5.0124
10.2251	4.9348
10.1056	4.4058
9.98873	3.6277
9.87458	3.7986
9.763	4.5083
9.65392	4.8179
9.54724	5.1116
9.44291	5.4731
9.34082	6.1489
9.24091	6.8909
9.14312	8.802
9.04739	9.0852
8.95363	8.9194
8.8618	8.0312
8.77183	6.5198
8.68368	5.6516
8.59727	4.957
8.51257	4.5288
8.42951	4.4455
8.34807	4.5071
8.26819	4.3642
8.18981	3.5288
8.11292	2.6682
8.03745	2.0049
7.96337	1.5859
7.89064	1.2134
7.81924	0.8821
7.74911	0.561
7.68023	0.5352
7.61256	0.6235
7.54608	0.7258
7.48074	0.8281
7.41653	0.9053
7.35341	0.9919
7.29136	1.0757
7.23034	1.1494
7.17033	1.1787
7.11132	1.1951
7.05327	1.2415
6.99616	1.335
6.93996	1.385
6.88467	1.4897
6.83024	1.6128
6.77667	1.7656
6.72393	1.9563
6.67201	2.064
6.62089	2.1191
6.57054	2.1687
6.52095	2.1792
6.4721	2.1606
6.42398	2.0928
6.37657	2.1189
6.32986	2.1633
6.28382	2.0925
6.23845	2.1016
6.19373	2.1545
6.14965	2.2527
6.10619	2.2566
6.06334	2.3367
6.02109	2.4194
5.97942	2.425
5.93832	2.3369
5.89778	2.2241
5.8578	2.2473
5.81835	2.2981
5.77943	2.2358
5.74103	1.9802
5.70314	1.7666
5.66574	1.7446
5.62883	1.6753
5.5924	1.602
5.55644	1.5884
5.52093	1.647
5.48588	1.791
5.45127	1.9702
5.41709	2.1003
5.38334	2.1042
5.35	2.2034
5.31708	2.3638
5.28456	2.5251
5.25243	3.3704
5.2207	4.1287
5.18934	4.446
5.15836	4.6247
5.12775	4.7244
5.09749	4.8125
5.0676	4.9016
5.03805	4.8591
5.00884	4.8784
4.97998	4.8574
4.95144	5.0505
4.92322	5.3374
4.89533	5.2107
4.86775	4.843
4.84048	4.6875
4.81351	4.7204
4.78684	4.6411
4.76047	4.7893
4.73439	5.3042
4.70859	5.6699
4.68306	5.6982
4.65782	5.6677
4.63284	5.8325
4.60814	6.1748
4.58369	6.2895
4.5595	6.3354
4.53557	6.2366
4.51188	6.4092
4.48845	6.8093
4.46525	7.2204
4.44229	7.8533
4.41957	8.5364
4.39708	9.2087
4.37481	9.7104
4.35277	10.0403
4.33096	10.3213
4.30935	10.5007
4.28797	10.6167
4.26679	10.698
4.24583	10.7783
4.22506	10.8537
4.2045	10.9162
4.18414	10.9709
4.16398	10.9929
4.14401	11.0022
4.12423	11.0229
4.10464	11.049
4.08523	11.0703
4.066	11.0969
4.04696	11.1035
4.02809	11.1152
4.0094	11.1233
3.99088	11.1106
3.97253	11.1162
3.95435	11.1262
3.93634	11.1435
3.91848	11.1506
3.90079	11.1477
3.88326	11.1159
3.86589	11.1238
3.84867	11.1584
3.8316	11.2534
3.81468	11.3269
3.79791	11.406
3.78129	11.4736
3.76482	11.5412
3.74848	11.5886
3.73229	11.6286
3.71624	11.6626
3.70032	11.6823
3.68454	11.7131
3.6689	11.7597
3.65338	11.8042
3.638	11.834
3.62275	11.8584
3.60762	11.9033
3.59262	11.9421
3.57775	11.9521
3.56299	11.9507
3.54836	11.9687
3.53385	11.9804
3.51945	11.9743
3.50517	11.9248
3.49101	11.9404
3.47696	11.9643
3.46303	11.9695
3.4492	11.9621
3.43549	11.917
3.42188	11.8557
3.40838	11.8506
3.39499	11.9236
3.38171	11.9277
3.36852	11.9353
3.35544	12
3.34246	12.0173
3.32958	12.0368
3.3168	12.0144
3.30411	12.0122
3.29153	12.0058
3.27903	11.9978
3.26664	11.9692
3.25433	11.9673
3.24212	11.9294
3.23	11.8999
3.21797	11.8681
3.20603	11.8452
3.19418	11.8137
3.18241	11.8205
3.17074	11.8051
3.15914	11.8159
3.14763	11.8044
3.13621	11.7973
3.12487	11.7922
3.11361	11.7983
3.10243	11.8134
3.09133	11.8269
3.0803	11.8423
3.06936	11.8525
3.0585	11.8625
3.04771	11.8603
3.037	11.8935
3.02636	11.9184
3.0158	11.9258
3.00531	11.9116
2.99489	11.9118
2.98454	11.9277
2.97427	11.9397
2.96407	11.9238
2.95393	11.9367
2.94387	11.9275
2.93387	11.9018
2.92394	11.9546
2.91408	11.9804
2.90429	12.0285
2.89456	12.0446
2.88489	12.0383
2.87529	12.0422
2.86576	12.0508
2.85628	12.1047
2.84687	12.154
2.83752	12.1767
2.82823	12.1992
2.81901	12.2478
2.80984	12.313
2.80073	12.2937
2.79168	12.3603
2.78269	12.3781
2.77376	12.4165
2.76488	12.3767
2.75606	12.3737
2.7473	12.5381
2.73859	12.5488
2.72994	12.676
2.72134	12.6821
2.7128	12.7746
2.70431	12.7439
2.69587	12.9067
2.68748	13.063
2.67915	13.0786
2.67087	13.0971
2.66264	13.1833
2.65446	13.2451
2.64633	13.2568
2.63825	13.2441
2.63021	13.187
2.62223	13.2551
2.6143	13.2453
2.60641	13.2373
2.59857	13.2817
2.59078	13.3007
2.58304	13.2881
2.57534	13.2824
2.56768	13.3076
2.56008	13.2883
2.55251	13.3086
2.54499	13.334
2.53752	13.3161
2.53009	13.352
2.5227	13.321
2.51536	13.3213
2.50806	13.3039
2.5008	13.3169
2.49358	13.312
2.4864	13.334
2.47927	13.3315
2.47218	13.3662
2.46512	13.3061
2.45811	13.3545
2.45114	13.3093
2.4442	13.3266
2.43731	13.3335
2.43045	13.3432
2.42363	13.3447
2.41685	13.3628
2.41011	13.3667
2.40341	13.3593
2.39674	13.3374
2.39011	13.3071
2.38352	13.3105
2.37696	13.3364
2.37044	13.3037
2.36395	13.2983
2.35751	13.3554
2.35109	13.3466
2.34471	13.3191
2.33836	13.2776
2.33205	13.2878
2.32578	13.3176
2.31953	13.2678
2.31332	13.3061
2.30714	13.3049
2.301	13.3203
2.29489	13.2727
2.28881	13.2697
2.28276	13.2666
2.27675	13.2856
2.27076	13.2375
2.26481	13.2851
2.25889	13.2978
2.253	13.2981
2.24714	13.2619
2.24131	13.2878
2.23551	13.3364
2.22974	13.3293
2.224	13.2949
2.21829	13.3213
2.21261	13.2971
2.20696	13.3159
2.20134	13.3491
2.19574	13.4155
2.19018	13.3408
2.18464	13.3779
2.17913	13.3291
2.17365	13.373
2.16819	13.4165
2.16277	13.4331
2.15737	13.4091
2.15199	13.3838
2.14665	13.3869
2.14133	13.3652
2.13603	13.4494
2.13077	13.4873
2.12552	13.4973
2.12031	13.5039
2.11512	13.4856
2.10995	13.4853
2.10481	13.4428
2.0997	13.5627
2.09461	13.5451
2.08954	13.6103
2.0845	13.5393
2.07948	13.6408
