Name: Prehnite Ca2Al2Si3O10(OH)2
Type: Mineral
Class: Silicates
Subclass: Phyllosilicates (Sheet Silicates); (Chlorite Group)
Particle Size: Fine  (0-74  Micrometers)
Sample No.: prehnite.1
Owner: JHU
Wavelength Range: IR
Origin: Paterson, New Jersey, USA via Norma Vergo
Description: The sample consisted of a cluster of light green,
Measurement: Bidirectional reflectance
X Units: Wavelength (micrometers)
Y Units: Reflectance (percent)
wavelength	value
25.0442	1.4844
24.3388	1.6028
23.6719	1.4524
23.0407	1.3982
22.4422	1.2017
21.8741	1.2888
21.334	1.4575
20.8199	1.9299
20.33	2.0349
19.8627	1.425
19.4163	1.2432
18.9896	1.1614
18.5812	1.2275
18.19	1.2463
17.815	0.9578
17.4551	0.4602
17.1094	0.386
16.7772	0.8513
16.4576	1.2524
16.15	1.894
15.8537	1.8728
15.568	1.8105
15.2925	2.0918
15.0265	1.5686
14.7697	1.9224
14.5214	2.0579
14.2814	2.0046
14.0492	1.7817
13.8244	1.5161
13.6067	1.3284
13.3957	1.144
13.1912	1.2358
12.9929	1.2131
12.8004	0.8503
12.6135	0.8684
12.432	0.9399
12.2557	0.9753
12.0843	0.9595
11.9176	0.9668
11.7555	1.0476
11.5977	1.0552
11.444	0.9526
11.2944	1.0586
11.1487	1.2214
11.0067	1.2776
10.8682	1.3269
10.7332	1.3191
10.6015	1.1331
10.473	1.0205
10.3476	1.0381
10.2251	1.2161
10.1056	1.512
9.98873	1.7029
9.87458	1.885
9.763	1.989
9.65392	1.7959
9.54724	1.2307
9.44291	0.853
9.34082	1.3369
9.24091	1.9148
9.14312	2.0195
9.04739	1.9517
8.95363	1.9497
8.8618	2.0083
8.77183	1.9663
8.68368	1.5229
8.59727	0.8931
8.51257	0.4687
8.42951	0.343
8.34807	0.4111
8.26819	0.5886
8.18981	0.8608
8.11292	1.2129
8.03745	1.5884
7.96337	1.9888
7.89064	2.3679
7.81924	2.7497
7.74911	3.1653
7.68023	3.5437
7.61256	3.9221
7.54608	4.2668
7.48074	4.5183
7.41653	4.668
7.35341	4.7458
7.29136	4.7637
7.23034	4.7693
7.17033	4.6597
7.11132	4.4795
7.05327	4.3843
6.99616	4.3152
6.93996	4.2529
6.88467	4.1623
6.83024	4.168
6.77667	4.258
6.72393	4.394
6.67201	4.4805
6.62089	4.4809
6.57054	4.4582
6.52095	4.4155
6.4721	4.3647
6.42398	4.4499
6.37657	4.7568
6.32986	5.2239
6.28382	5.6535
6.23845	5.8672
6.19373	5.9756
6.14965	6.091
6.10619	6.1531
6.06334	6.1933
6.02109	6.1616
5.97942	6.0439
5.93832	5.9673
5.89778	5.8706
5.8578	5.7273
5.81835	5.7302
5.77943	5.9123
5.74103	6.0151
5.70314	6.0723
5.66574	6.1037
5.62883	6.2251
5.5924	6.3301
5.55644	6.2532
5.52093	6.0464
5.48588	5.5561
5.45127	5.2749
5.41709	5.5432
5.38334	5.9172
5.35	6.3454
5.31708	6.9468
5.28456	7.5517
5.25243	8.2475
5.2207	8.7495
5.18934	8.9221
5.15836	8.8655
5.12775	8.7615
5.09749	9.0542
5.0676	9.4909
5.03805	9.7859
5.00884	10.0769
4.97998	10.2993
4.95144	10.6257
4.92322	11.1208
4.89533	11.5207
4.86775	11.7492
4.84048	11.9243
4.81351	12.0161
4.78684	11.9885
4.76047	12.0329
4.73439	12.415
4.70859	12.6794
4.68306	12.9323
4.65782	13.1452
4.63284	13.2243
4.60814	13.3982
4.58369	13.6652
4.5595	13.8088
4.53557	13.8974
4.51188	14.0632
4.48845	14.2331
4.46525	14.4275
4.44229	14.6264
4.41957	14.7624
4.39708	14.8618
4.37481	14.9682
4.35277	15.0371
4.33096	15.0815
4.30935	15.146
4.28797	15.2343
4.26679	15.3164
4.24583	15.3901
4.22506	15.4358
4.2045	15.4797
4.18414	15.5141
4.16398	15.54
4.14401	15.5947
4.12423	15.6569
4.10464	15.7219
4.08523	15.7556
4.066	15.7617
4.04696	15.7461
4.02809	15.7065
4.0094	15.6433
3.99088	15.559
3.97253	15.5654
3.95435	15.6252
3.93634	15.7461
3.91848	15.7136
3.90079	15.6213
3.88326	15.3466
3.86589	15.2622
3.84867	15.3186
3.8316	15.3269
3.81468	15.426
3.79791	15.499
3.78129	15.5185
3.76482	15.4594
3.74848	15.3059
3.73229	15.1428
3.71624	15.1452
3.70032	15.122
3.68454	14.9734
3.6689	14.8586
3.65338	14.7817
3.638	14.7749
3.62275	14.747
3.60762	14.6777
3.59262	14.6574
3.57775	14.7251
3.56299	14.7959
3.54836	14.7966
3.53385	14.7461
3.51945	14.6286
3.50517	14.4616
3.49101	14.4987
3.47696	14.5337
3.46303	14.5273
3.4492	14.394
3.43549	14.1858
3.42188	13.8718
3.40838	13.8198
3.39499	13.9101
3.38171	13.8071
3.36852	13.7209
3.35544	13.6289
3.34246	13.4878
3.32958	13.2876
3.3168	13.0879
3.30411	12.9228
3.29153	12.792
3.27903	12.6689
3.26664	12.5327
3.25433	12.2939
3.24212	12.0918
3.23	11.9238
3.21797	11.7737
3.20603	11.4944
3.19418	11.1491
3.18241	10.8156
3.17074	10.6565
3.15914	10.5288
3.14763	10.4079
3.13621	10.3054
3.12487	10.1301
3.11361	9.9145
3.10243	9.7746
3.09133	9.6743
3.0803	9.6001
3.06936	9.5393
3.0585	9.3379
3.04771	9.0146
3.037	8.7268
3.02636	8.3298
3.0158	7.8398
3.00531	7.2685
2.99489	6.8135
2.98454	6.5295
2.97427	6.3799
2.96407	6.2458
2.95393	5.9455
2.94387	5.9026
2.93387	5.7292
2.92394	4.6721
2.91408	3.302
2.90429	2.0937
2.89456	1.5625
2.88489	1.3547
2.87529	0.9963
2.86576	0.8274
2.85628	1.0095
2.84687	2.0478
2.83752	3.9861
2.82823	5.8952
2.81901	6.7737
2.80984	7.0718
2.80073	7.1548
2.79168	7.1648
2.78269	7.3923
2.77376	8.0271
2.76488	8.8445
2.75606	9.7698
2.7473	10.8449
2.73859	11.7741
2.72994	12.7734
2.72134	13.4834
2.7128	14.1213
2.70431	14.6711
2.69587	15.0639
2.68748	15.3181
2.67915	15.4987
2.67087	15.635
2.66264	15.8615
2.65446	16.2397
2.64633	16.3559
2.63825	16.0459
2.63021	15.5229
2.62223	15.1833
2.6143	14.8283
2.60641	14.6005
2.59857	14.7124
2.59078	14.8437
2.58304	14.6628
2.57534	14.436
2.56768	14.5073
2.56008	14.6792
2.55251	14.9724
2.54499	15.206
2.53752	15.1367
2.53009	15.0034
2.5227	15.3598
2.51536	16.0383
2.50806	16.3378
2.5008	16.3823
2.49358	16.392
2.4864	16.4931
2.47927	16.4409
2.47218	16.4975
2.46512	16.8447
2.45811	17.0727
2.45114	17.1552
2.4442	17.1821
2.43731	16.7343
2.43045	16.1494
2.42363	15.6433
2.41685	14.8208
2.41011	14.2756
2.40341	14.02
2.39674	13.528
2.39011	12.9819
2.38352	12.9958
2.37696	13.268
2.37044	13.0986
2.36395	12.0085
2.35751	11.5974
2.35109	12.3945
2.34471	13.2756
2.33836	13.4406
2.33205	13.2412
2.32578	14.5781
2.31953	16.8889
2.31332	18.1105
2.30714	18.6001
2.301	18.5422
2.29489	18.2602
2.28881	18.0871
2.28276	17.8212
2.27675	17.9096
2.27076	18.3208
2.26481	18.6533
2.25889	18.8264
2.253	18.7841
2.24714	18.3723
2.24131	17.998
2.23551	17.8701
2.22974	18.208
2.224	18.7807
2.21829	19.207
2.21261	19.747
2.20696	20.2724
2.20134	20.5246
2.19574	20.6582
2.19018	20.8605
2.18464	20.9199
2.17913	21.0168
2.17365	21.0734
2.16819	21.1762
2.16277	21.1262
2.15737	21.2131
2.15199	21.2773
2.14665	21.3398
2.14133	21.3994
2.13603	21.3447
2.13077	21.395
2.12552	21.4238
2.12031	21.4111
2.11512	21.5263
2.10995	21.6386
2.10481	21.6093
2.0997	21.6523
2.09461	21.6894
2.08954	21.7773
2.0845	21.7678
2.07948	21.7866
