Name: Hematite a-Fe2O3
Type: Mineral
Class: Oxides
Subclass: (Hematite Group)
Particle Size: Fine  (less than 2 micrometers)
Sample No.: hematite.1
Owner: JHU
Wavelength Range: IR
Origin: Frizington, Cumberland, England via the Smithsonian (sample
Description: The sample was a 2.5 cm x 2.5 cm x 1 cm sawn plate,
Measurement: Transmission
X Units: Wavelength (micrometers)
Y Units: Transmittance (percent)
wavelength	value
25.0442	46.9764
24.3388	58.6034
23.6719	53.6893
23.0407	37.497
22.4422	20.1035
21.8741	11.082
21.334	8.8838
20.8199	14.0019
20.33	28.6249
19.8627	36.5609
19.4163	24.3442
18.9896	10.5703
18.5812	6.3486
18.19	6.1514
17.815	7.7744
17.4551	10.8027
17.1094	14.5981
16.7772	18.5332
16.4576	22.1318
16.15	24.3847
15.8537	25.0893
15.568	30.3222
15.2925	46.9042
15.0265	59.6952
14.7697	66.265
14.5214	70.1468
14.2814	73.0081
14.0492	76.1302
13.8244	79.1023
13.6067	81.9822
13.3957	84.2928
13.1912	85.7432
12.9929	86.6973
12.8004	86.8311
12.6135	86.8318
12.432	86.6492
12.2557	86.8438
12.0843	87.1331
11.9176	87.1741
11.7555	86.7488
11.5977	86.3245
11.444	86.0137
11.2944	85.7713
11.1487	85.3282
11.0067	84.6814
10.8682	84.6563
10.7332	84.6624
10.6015	84.8811
10.473	85.2139
10.3476	85.2373
10.2251	85.2774
10.1056	85.2151
9.98873	84.9571
9.87458	84.9173
9.763	84.5603
9.65392	84.0235
9.54724	84.1082
9.44291	84.3203
9.34082	84.5584
9.24091	84.6223
9.14312	84.6426
9.04739	84.8338
8.95363	85.5965
8.8618	86.1184
8.77183	86.3411
8.68368	86.605
8.59727	86.8521
8.51257	87.0379
8.42951	87.2766
8.34807	87.3992
8.26819	87.4241
8.18981	87.4878
8.11292	87.3509
8.03745	87.1306
7.96337	86.4329
7.89064	85.7195
7.81924	86.4719
7.74911	86.3479
7.68023	86.0271
7.61256	85.7671
7.54608	85.5674
7.48074	85.315
7.41653	85.0012
7.35341	84.7442
7.29136	84.4239
7.23034	83.9002
7.17033	83.5203
7.11132	83.1985
7.05327	83.1643
6.99616	83.1961
6.93996	83.0628
6.88467	82.8943
6.83024	82.5721
6.77667	82.3431
6.72393	82.1219
6.67201	81.6824
6.62089	81.3343
6.57054	80.8943
6.52095	80.7356
6.4721	80.441
6.42398	80.0999
6.37657	79.9851
6.32986	79.7708
6.28382	79.4627
6.23845	78.9383
6.19373	77.9817
6.14965	76.9246
6.10619	76.8133
6.06334	76.9593
6.02109	77.4446
5.97942	77.9651
5.93832	77.8675
5.89778	78.0218
5.8578	78.0838
5.81835	77.8123
5.77943	77.8641
5.74103	77.7093
5.70314	77.511
5.66574	77.3055
5.62883	77.1038
5.5924	76.8865
5.55644	76.6326
5.52093	76.3658
5.48588	76.1561
5.45127	75.9417
5.41709	75.6663
5.38334	75.4319
5.35	75.1326
5.31708	74.9178
5.28456	74.6707
5.25243	74.4773
5.2207	74.1751
5.18934	73.9417
5.15836	73.7454
5.12775	73.473
5.09749	73.2044
5.0676	73.0003
5.03805	72.7606
5.00884	72.491
4.97998	72.2357
4.95144	71.9788
4.92322	71.7173
4.89533	71.4778
4.86775	71.2349
4.84048	70.9915
4.81351	70.7388
4.78684	70.5259
4.76047	70.2657
4.73439	70.004
4.70859	69.7405
4.68306	69.5731
4.65782	69.3543
4.63284	69.1029
4.60814	68.92
4.58369	68.6361
4.5595	68.4346
4.53557	68.213
4.51188	67.9564
4.48845	67.7518
4.46525	67.5093
4.44229	67.3236
4.41957	67.0792
4.39708	66.8226
4.37481	66.6104
4.35277	66.3758
4.33096	66.1097
4.30935	65.9232
4.28797	65.7015
4.26679	65.4046
4.24583	65.1807
4.22506	64.9329
4.2045	64.702
4.18414	64.4845
4.16398	64.2862
4.14401	64.0262
4.12423	63.7992
4.10464	63.5794
4.08523	63.3211
4.066	63.0684
4.04696	62.8238
4.02809	62.5863
4.0094	62.2987
3.99088	62.0494
3.97253	61.7982
3.95435	61.63
3.93634	61.4227
3.91848	61.1854
3.90079	60.9227
3.88326	60.6798
3.86589	60.412
3.84867	60.1834
3.8316	59.9259
3.81468	59.679
3.79791	59.4386
3.78129	59.2191
3.76482	59.0135
3.74848	58.7618
3.73229	58.5394
3.71624	58.264
3.70032	57.9837
3.68454	57.7132
3.6689	57.4979
3.65338	57.2391
3.638	57.045
3.62275	56.7357
3.60762	56.3993
3.59262	56.2792
3.57775	56.0284
3.56299	55.7127
3.54836	55.4525
3.53385	55.1717
3.51945	54.8605
3.50517	54.6366
3.49101	54.3021
3.47696	54.162
3.46303	53.9129
3.4492	53.6659
3.43549	53.4012
3.42188	53.0624
3.40838	52.7921
3.39499	52.7032
3.38171	52.3563
3.36852	52.1424
3.35544	52.0607
3.34246	51.9003
3.32958	51.5673
3.3168	51.3641
3.30411	51.1117
3.29153	50.826
3.27903	50.6278
3.26664	50.329
3.25433	50.0411
3.24212	49.703
3.23	49.4169
3.21797	49.1954
3.20603	48.9093
3.19418	48.6176
3.18241	48.2733
3.17074	48.0614
3.15914	47.7677
3.14763	47.4982
3.13621	47.1573
3.12487	46.8622
3.11361	46.516
3.10243	46.2474
3.09133	45.955
3.0803	45.6288
3.06936	45.3539
3.0585	45.0316
3.04771	44.6815
3.037	44.4555
3.02636	44.0785
3.0158	43.6903
3.00531	43.3168
2.99489	42.9315
2.98454	42.4345
2.97427	41.9564
2.96407	41.4506
2.95393	40.9931
2.94387	40.6522
2.93387	40.4696
2.92394	40.0941
2.91408	40.0155
2.90429	39.9809
2.89456	39.9516
2.88489	40.0028
2.87529	40.0336
2.86576	39.9374
2.85628	40.0062
2.84687	40.143
2.83752	40.3739
2.82823	40.5199
2.81901	40.7758
2.80984	40.9242
2.80073	40.9789
2.79168	41.0419
2.78269	41.1063
2.77376	41.1864
2.76488	41.2733
2.75606	41.4442
2.7473	41.3778
2.73859	41.266
2.72994	41.2016
2.72134	40.8812
2.7128	40.7016
2.70431	40.725
2.69587	40.5419
2.68748	40.4052
2.67915	40.1586
2.67087	39.9227
2.66264	39.8046
2.65446	39.6483
2.64633	39.496
2.63825	39.2343
2.63021	38.9008
2.62223	38.7929
2.6143	38.5937
2.60641	38.4555
2.59857	38.2733
2.59078	38.1786
2.58304	37.9081
2.57534	37.727
2.56768	37.4999
2.56008	37.2777
2.55251	37.2948
2.54499	36.932
2.53752	36.7675
2.53009	36.6249
2.5227	36.4394
2.51536	36.2948
2.50806	36.12
2.5008	36.0233
2.49358	35.7519
2.4864	35.6581
2.47927	35.3368
2.47218	35.1737
2.46512	35.0888
2.45811	34.9169
2.45114	34.6357
2.4442	34.5458
2.43731	34.5243
2.43045	34.3271
2.42363	34.0321
2.41685	33.9501
2.41011	33.7411
2.40341	33.6376
2.39674	33.536
2.39011	33.3485
2.38352	33.123
2.37696	33.0741
2.37044	32.9179
2.36395	32.6816
2.35751	32.6405
2.35109	32.371
2.34471	32.2226
2.33836	32.122
2.33205	31.9941
2.32578	31.9179
2.31953	31.6728
2.31332	31.5038
2.30714	31.5282
2.301	31.4296
2.29489	31.2812
2.28881	31.1737
2.28276	30.9843
2.27675	30.6913
2.27076	30.578
2.26481	30.6972
2.25889	30.3515
2.253	30.3798
2.24714	30.4814
2.24131	30.2089
2.23551	29.8564
2.22974	29.9316
2.224	29.9706
2.21829	29.5282
2.21261	29.3749
2.20696	29.5702
2.20134	29.2109
2.19574	29.2265
2.19018	29.165
2.18464	28.9667
2.17913	28.8417
2.17365	28.7695
2.16819	28.6611
2.16277	28.6962
2.15737	28.414
2.15199	28.497
2.14665	28.3837
2.14133	28.4257
2.13603	27.8749
2.13077	28.1523
2.12552	28.0038
2.12031	27.6249
2.11512	27.7577
2.10995	27.4999
2.10481	27.6025
2.0997	27.6738
2.09461	27.2011
2.08954	27.1894
2.0845	27.1601
2.07948	26.998
