Name: Monzonite
Type: Rocks
Class: Igneous
Subclass: Intermediate
Particle Size: Solid
Sample No.: Monzonite.H1
Owner: JHU
Origin: Near Silverton, San Juan County, Colorado, via Ward's Scientific
Description: A purplish-gray, medium-grained granular rock composed of
Measurement: Directional (10 degree) hemispherical reflectance
X Units: Wavelength (micrometers)
Y Units: Reflectance (percent)
wavelength	value
14.0112	4.5506
13.7147	4.3303
13.4304	4.849
13.1577	4.6491
12.8959	5.568
12.6443	5.0353
12.4023	4.9498
12.1694	3.9363
11.945	4.741
11.7289	5.3351
11.5203	5.9095
11.3191	6.6353
11.1248	7.327
10.937	8.0196
10.7555	8.7792
10.5799	9.9109
10.4099	11.3046
10.2454	13.0926
10.0859	15.248
9.9313	17.3051
9.7814	17.6693
9.636	19.2742
9.4948	19.7969
9.3577	21.1497
9.2245	21.6192
9.095	20.5212
8.9691	20.0153
8.8467	20.9371
8.7275	21.2521
8.6116	18.8446
8.4986	21.6007
8.3886	20.7872
8.2814	17.9381
8.1769	13.6504
8.075	7.9151
7.9756	4.4606
7.8786	2.5146
7.784	1.8089
7.6916	1.5023
7.6014	1.3579
7.5133	1.287
7.4272	1.35
7.343	1.3706
7.2607	1.4761
7.1803	1.575
7.1016	1.7238
7.0246	1.8229
6.9493	1.9018
6.8755	1.9571
6.8034	2.0172
6.7327	2.1039
6.6634	2.1896
6.5956	2.2465
6.5292	2.2886
6.464	2.3145
6.4002	2.328
6.3376	2.294
6.2762	2.2455
6.216	2.2717
6.157	2.3205
6.099	2.3737
6.0421	2.4806
5.9863	2.4886
5.9315	2.554
5.8777	2.6433
5.8249	2.7501
5.773	2.8706
5.722	2.9098
5.6719	2.9696
5.6227	2.9075
5.5744	2.9606
5.5268	3.0875
5.4801	3.2384
5.4341	3.3452
5.3889	3.3499
5.3445	3.3792
5.3008	3.4338
5.2578	3.58
5.2154	3.7964
5.1738	3.9546
5.1328	4.0772
5.0925	4.2206
5.0528	4.2839
5.0137	4.3779
4.9752	4.5265
4.9373	4.7317
4.9	4.9306
4.8632	5.2788
4.827	5.4755
4.7913	5.5694
4.7561	5.7098
4.7215	5.8535
4.6873	5.9029
4.6536	6.0776
4.6205	6.3691
4.5877	6.6262
4.5555	6.8714
4.5237	7.0197
4.4923	7.1334
4.4614	7.3327
4.4309	7.6779
4.4008	8.0569
4.3711	8.4347
4.3418	8.8561
4.3129	9.1966
4.2844	9.517
4.2563	9.8716
4.2285	10.1147
4.2011	10.3413
4.174	10.601
4.1473	10.8239
4.1209	11.069
4.0949	11.2746
4.0692	11.4457
4.0438	11.5404
4.0187	11.5205
3.994	11.4206
3.9695	11.4782
3.9453	11.8535
3.9214	12.108
3.8979	12.217
3.8746	12.2955
3.8515	12.3656
3.8288	12.5153
3.8063	12.6513
3.7841	12.707
3.7621	12.693
3.7404	12.6794
3.7189	12.6787
3.6977	12.693
3.6767	12.649
3.656	12.5979
3.6355	12.5125
3.6152	12.4212
3.5951	12.2674
3.5753	12.0827
3.5557	11.9125
3.5363	11.6177
3.5171	11.0648
3.4981	10.5708
3.4793	10.5176
3.4607	10.4571
3.4423	10.1034
3.4241	9.3989
3.4061	9.4064
3.3883	9.4047
3.3707	9.266
3.3533	9.2353
3.336	9.0412
3.3189	8.8621
3.302	8.6179
3.2853	8.3787
3.2687	8.1068
3.2523	7.792
3.2361	7.5007
3.22	7.1678
3.204	6.8468
3.1883	6.5751
3.1727	6.3295
3.1572	6.1312
3.1419	5.8671
3.1268	5.7945
3.1117	5.6072
3.0969	5.5478
3.0821	5.4778
3.0675	5.4337
3.0531	5.3993
3.0388	5.4815
3.0246	5.4647
3.0105	5.385
2.9966	5.4499
2.9828	5.4094
2.9692	5.3733
2.9556	5.3824
2.9422	5.4403
2.9289	5.5127
2.9157	5.547
2.9027	5.6646
2.8897	5.8753
2.8769	5.9859
2.8642	6.1186
2.8516	6.2571
2.8391	6.3516
2.8267	6.3984
2.8144	6.5578
2.8022	6.7289
2.7902	6.821
2.7782	6.8353
2.7664	6.8379
2.7546	6.9483
2.7429	7.2714
2.7314	7.7039
2.7199	8.6641
2.7085	10.1301
2.6973	11.7846
2.6861	14.2924
2.675	15.6612
2.664	16.3179
2.6531	16.6501
2.6423	16.9594
2.6315	17.1621
2.6209	17.3444
2.6103	17.4046
2.5999	17.4659
2.5895	17.6252
2.5792	17.6786
2.569	17.7705
2.5588	17.819
2.5487	17.849
2.5388	17.8779
2.5289	17.9072
2.519	18.0524
2.5093	18.0178
2.4996	18.1282
2.49	18.1436
2.4805	18.3159
2.471	18.3641
2.4616	18.5332
2.4523	18.5751
2.4431	18.6607
2.4339	18.8676
2.4248	19.1212
2.4157	19.1924
2.4068	19.2911
2.3979	19.4153
2.389	19.3982
2.3802	19.5633
2.3715	19.5864
2.3629	19.6043
2.3543	19.5859
2.3458	19.5628
2.3373	19.6204
2.3289	19.7732
2.3206	20.069
2.3123	20.276
2.3041	20.4766
2.2959	20.6641
2.2878	20.9298
2.2798	21.1092
2.2718	21.2362
2.2638	21.1937
2.2559	21.2177
2.2481	21.2339
2.2403	21.3758
2.2326	21.4565
2.225	21.4155
2.2173	21.3213
2.2098	21.1999
2.2023	21.1413
2.1948	21.2301
2.1874	21.5966
2.18	21.9248
2.1727	22.1031
2.1655	22.3766
2.1583	22.4662
2.1511	22.5716
2.144	22.6459
2.1369	22.7784
2.1299	22.7582
2.1229	22.777
2.116	22.8285
2.1091	22.836
2.1023	22.8836
2.0955	22.9504
2.0887	22.9265
2.082	23.02
2.06	23.0601
2.028	23.0338
1.996	22.7668
1.964	22.4469
1.932	22.1421
1.9	22.0901
1.868	24.0155
1.836	24.3272
1.804	24.5905
1.772	24.5392
1.74	24.6422
1.708	24.9389
1.676	25.1044
1.644	25.0985
1.612	25.3538
1.58	25.3153
1.548	25.3384
1.516	25.1881
1.484	25.1661
1.452	25.1158
1.42	24.9022
1.388	24.8104
1.356	25.4717
1.324	25.4185
1.292	25.6161
1.26	25.6499
1.228	25.5619
1.196	25.787
1.164	25.9545
1.132	25.9845
1.1	26.0816
1.068	26.3114
1.036	26.7184
1.004	27.0183
0.972	27.5019
0.94	27.6445
0.908	27.6479
0.876	27.7775
0.844	28.0483
0.812	28.5129
0.795	28.5055
0.787	28.5101
0.779	28.6251
0.771	28.5368
0.763	28.6709
0.755	28.7556
0.747	28.566
0.739	28.5519
0.731	28.6975
0.723	28.6239
0.715	29.0541
0.707	28.8217
0.699	29.0953
0.691	29.0617
0.683	28.7273
0.675	28.9973
0.667	29.4064
0.659	28.8763
0.651	28.9042
0.643	29.0288
0.635	28.9113
0.627	28.6268
0.619	29.2408
0.611	28.9899
0.603	29.2205
0.595	29.472
0.587	28.8296
0.579	29.0582
0.571	28.1921
0.563	28.2133
0.555	28.3748
0.547	28.0346
0.539	27.5681
0.531	26.8789
0.523	27.1662
0.515	26.9565
0.507	26.7204
0.499	25.9474
0.491	25.4228
0.483	25.3349
0.475	24.8863
0.467	24.6654
0.459	23.9936
0.451	23.7206
0.443	23.1672
0.435	22.5102
0.427	22.0879
0.419	20.9761
0.411	20.865
0.403	20.2772
