Name: Chromite Fe+2Cr2O4
Type: Mineral
Class: Oxides (Spinel Group)
Particle Size: Fine  (0-74 Micrometers)
Sample No.: chromite.1
Owner: JHU
Wavelength Range: IR
Origin: Smithsonian NMNH 117075; Sample from Tiebaghi Mine, New
Description: The sample was one large (3.5 cm x 2 cm x 2 cm) piece
Measurement: Bidirectional reflectance
X Units: Wavelength (micrometers)
Y Units: Reflectance (percent)
wavelength	value
25.0442	4.1367
24.3388	3.9849
23.6719	4.0259
23.0407	4.1142
22.4422	3.8655
21.8741	4.0683
21.334	4.4072
20.8199	5.4643
20.33	5.9797
19.8627	5.8362
19.4163	5.5547
18.9896	5.52
18.5812	5.334
18.19	4.7724
17.815	3.5918
17.4551	1.8101
17.1094	1.8042
16.7772	2.1914
16.4576	2.5972
16.15	3.2461
15.8537	4.4758
15.568	4.7554
15.2925	4.8003
15.0265	4.9585
14.7697	5.0696
14.5214	4.9599
14.2814	4.7859
14.0492	4.6763
13.8244	4.7322
13.6067	5.0151
13.3957	5.2986
13.1912	4.5046
12.9929	2.7561
12.8004	1.0757
12.6135	0.6533
12.432	0.8945
12.2557	1.2544
12.0843	1.5344
11.9176	1.7707
11.7555	1.9514
11.5977	2.1221
11.444	2.2097
11.2944	2.3027
11.1487	2.3972
11.0067	2.4563
10.8682	2.3899
10.7332	2.2996
10.6015	2.3044
10.473	2.614
10.3476	2.9282
10.2251	3.187
10.1056	3.3403
9.98873	3.3757
9.87458	3.4136
9.763	3.5669
9.65392	3.7392
9.54724	3.7803
9.44291	3.8061
9.34082	3.9675
9.24091	4.2451
9.14312	4.4707
9.04739	5.1772
8.95363	6.1987
8.8618	6.6413
8.77183	6.8633
8.68368	6.9765
8.59727	7.0564
8.51257	7.3498
8.42951	7.9192
8.34807	8.5652
8.26819	9.1264
8.18981	9.4934
8.11292	9.6794
8.03745	9.5783
7.96337	9.3457
7.89064	9.3847
7.81924	9.584
7.74911	9.7688
7.68023	10.0007
7.61256	10.2966
7.54608	10.6633
7.48074	10.9951
7.41653	11.249
7.35341	11.4702
7.29136	11.6228
7.23034	11.7588
7.17033	11.9394
7.11132	12.0547
7.05327	12.1396
6.99616	12.2375
6.93996	12.2566
6.88467	12.2737
6.83024	12.3515
6.77667	12.654
6.72393	12.9294
6.67201	13.0559
6.62089	13.1591
6.57054	13.2046
6.52095	13.2055
6.4721	13.1865
6.42398	13.1203
6.37657	13.0879
6.32986	13.0649
6.28382	13.0571
6.23845	13.0808
6.19373	13.1308
6.14965	13.2033
6.10619	13.3081
6.06334	13.4829
6.02109	13.6403
5.97942	13.8169
5.93832	14.0349
5.89778	14.2502
5.8578	14.4255
5.81835	14.5297
5.77943	14.6137
5.74103	14.6955
5.70314	14.8176
5.66574	14.8881
5.62883	14.9602
5.5924	14.9951
5.55644	15.0234
5.52093	15.0791
5.48588	15.1318
5.45127	15.1894
5.41709	15.2338
5.38334	15.2622
5.35	15.3303
5.31708	15.4045
5.28456	15.4423
5.25243	15.4519
5.2207	15.4465
5.18934	15.4621
5.15836	15.4763
5.12775	15.4565
5.09749	15.4592
5.0676	15.4548
5.03805	15.4284
5.00884	15.3999
4.97998	15.3654
4.95144	15.3249
4.92322	15.28
4.89533	15.2666
4.86775	15.2312
4.84048	15.1645
4.81351	15.0854
4.78684	15.0266
4.76047	14.9748
4.73439	14.9035
4.70859	14.7988
4.68306	14.6884
4.65782	14.58
4.63284	14.4831
4.60814	14.3735
4.58369	14.2378
4.5595	14.0962
4.53557	13.9358
4.51188	13.7841
4.48845	13.6411
4.46525	13.4712
4.44229	13.2988
4.41957	13.1403
4.39708	12.9563
4.37481	12.7732
4.35277	12.5825
4.33096	12.3799
4.30935	12.1738
4.28797	11.9687
4.26679	11.771
4.24583	11.5627
4.22506	11.3493
4.2045	11.1494
4.18414	10.9309
4.16398	10.7036
4.14401	10.466
4.12423	10.2409
4.10464	10.0263
4.08523	9.8208
4.066	9.5991
4.04696	9.3767
4.02809	9.1516
4.0094	8.9416
3.99088	8.7278
3.97253	8.5173
3.95435	8.3049
3.93634	8.1123
3.91848	7.9136
3.90079	7.7099
3.88326	7.5176
3.86589	7.3254
3.84867	7.134
3.8316	6.949
3.81468	6.7561
3.79791	6.5784
3.78129	6.3972
3.76482	6.2378
3.74848	6.0627
3.73229	5.8957
3.71624	5.7339
3.70032	5.5669
3.68454	5.4221
3.6689	5.2749
3.65338	5.1155
3.638	4.9895
3.62275	4.8594
3.60762	4.7287
3.59262	4.5945
3.57775	4.4778
3.56299	4.3613
3.54836	4.238
3.53385	4.1189
3.51945	3.9919
3.50517	3.8472
3.49101	3.7817
3.47696	3.6992
3.46303	3.6128
3.4492	3.5166
3.43549	3.4121
3.42188	3.2956
3.40838	3.2336
3.39499	3.1872
3.38171	3.124
3.36852	3.0749
3.35544	3.0478
3.34246	2.9758
3.32958	2.9189
3.3168	2.8706
3.30411	2.8147
3.29153	2.7649
3.27903	2.7102
3.26664	2.6633
3.25433	2.6191
3.24212	2.5796
3.23	2.5259
3.21797	2.4961
3.20603	2.4543
3.19418	2.4167
3.18241	2.3811
3.17074	2.3694
3.15914	2.3506
3.14763	2.313
3.13621	2.2825
3.12487	2.2715
3.11361	2.2593
3.10243	2.2515
3.09133	2.2375
3.0803	2.2151
3.06936	2.1999
3.0585	2.1882
3.04771	2.189
3.037	2.1526
3.02636	2.1526
3.0158	2.1401
3.00531	2.1411
2.99489	2.1379
2.98454	2.1379
2.97427	2.1318
2.96407	2.1155
2.95393	2.1189
2.94387	2.1133
2.93387	2.0967
2.92394	2.0967
2.91408	2.0703
2.90429	2.0991
2.89456	2.0749
2.88489	2.0664
2.87529	2.0576
2.86576	2.061
2.85628	2.0664
2.84687	2.0625
2.83752	2.0601
2.82823	2.0469
2.81901	2.0439
2.80984	2.0156
2.80073	2.0376
2.79168	2.0142
2.78269	1.9956
2.77376	1.9814
2.76488	1.98
2.75606	1.9868
2.7473	1.9722
2.73859	1.9565
2.72994	1.9321
2.72134	1.8874
2.7128	1.8013
2.70431	1.8066
2.69587	1.9253
2.68748	2.0249
2.67915	2.0801
2.67087	2.1128
2.66264	2.0879
2.65446	2.1096
2.64633	2.0964
2.63825	2.0718
2.63021	2.0925
2.62223	2.0952
2.6143	2.0962
2.60641	2.0774
2.59857	2.0747
2.59078	2.0508
2.58304	2.0498
2.57534	2.0615
2.56768	2.0415
2.56008	2.0618
2.55251	2.0439
2.54499	2.0081
2.53752	2.0435
2.53009	2.0159
2.5227	2.0015
2.51536	1.9954
2.50806	1.9661
2.5008	1.9697
2.49358	1.9426
2.4864	1.9563
2.47927	1.9453
2.47218	1.9436
2.46512	1.9172
2.45811	1.9297
2.45114	1.9163
2.4442	1.9033
2.43731	1.9004
2.43045	1.8879
2.42363	1.9221
2.41685	1.884
2.41011	1.8723
2.40341	1.8635
2.39674	1.843
2.39011	1.8469
2.38352	1.8518
2.37696	1.8164
2.37044	1.8398
2.36395	1.8716
2.35751	1.8359
2.35109	1.8428
2.34471	1.8242
2.33836	1.8101
2.33205	1.8076
2.32578	1.8398
2.31953	1.8184
2.31332	1.8052
2.30714	1.8115
2.301	1.8042
2.29489	1.791
2.28881	1.812
2.28276	1.7808
2.27675	1.8306
2.27076	1.7642
2.26481	1.811
2.25889	1.7895
2.253	1.8174
2.24714	1.7715
2.24131	1.8057
2.23551	1.8232
2.22974	1.7915
2.224	1.811
2.21829	1.7251
2.21261	1.8144
2.20696	1.7993
2.20134	1.8242
2.19574	1.8193
2.19018	1.7988
2.18464	1.8125
2.17913	1.8149
2.17365	1.8154
2.16819	1.811
2.16277	1.8091
2.15737	1.8018
2.15199	1.8037
2.14665	1.7974
2.14133	1.811
2.13603	1.791
2.13077	1.8105
2.12552	1.7988
2.12031	1.8232
2.11512	1.7969
2.10995	1.8227
2.10481	1.7676
2.0997	1.8184
2.09461	1.8066
2.08954	1.8442
2.0845	1.7959
2.07948	1.7935
