Name: Zoisite (var. tanzanite) Ca2Al3(SiO4)3(OH)
Type: Mineral
Class: Silicates
Particle Size: Fine (0 - 74 Micrometers)
Sample No.: zoisite.1
Owner: JHU
Wavelength Range: IR
Origin: Arusha, Tanzania via the Smithsonian (sample no. NMNH
Description: The sample consisted of five euhedral, violet-blue
Measurement: Bidirectional reflectance
X Units: Wavelength (micrometers)
Y Units: Reflectance (percent)
wavelength	value
25.0442	3.4868
24.3388	3.3137
23.6719	2.2227
23.0407	2.4487
22.4422	2.956
21.8741	3.2129
21.334	3.1289
20.8199	2.6052
20.33	1.8669
19.8627	2.4123
19.4163	2.5315
18.9896	1.9604
18.5812	2.1411
18.19	2.5874
17.815	2.9988
17.4551	3.3379
17.1094	3.1948
16.7772	2.352
16.4576	2.2068
16.15	2.387
15.8537	2.5342
15.568	1.9072
15.2925	2.0325
15.0265	2.239
14.7697	2.407
14.5214	2.1396
14.2814	2.1352
14.0492	1.4902
13.8244	1.5884
13.6067	1.4416
13.3957	1.6133
13.1912	1.5771
12.9929	1.6467
12.8004	1.634
12.6135	2.106
12.432	2.7073
12.2557	2.9067
12.0843	2.4617
11.9176	2.1335
11.7555	2.0891
11.5977	1.9831
11.444	1.8889
11.2944	2.0684
11.1487	2.4131
11.0067	2.1811
10.8682	1.8782
10.7332	1.9805
10.6015	2.4407
10.473	2.6484
10.3476	2.7427
10.2251	2.77
10.1056	2.8525
9.98873	2.9905
9.87458	2.8735
9.763	2.5515
9.65392	2.105
9.54724	1.7781
9.44291	1.6992
9.34082	1.7231
9.24091	1.6028
9.14312	1.4658
9.04739	1.9475
8.95363	2.2483
8.8618	2.7771
8.77183	3.124
8.68368	2.9228
8.59727	2.9807
8.51257	2.6821
8.42951	1.4817
8.34807	0.981
8.26819	1.0708
8.18981	1.3811
8.11292	1.8833
8.03745	2.4311
7.96337	3.0447
7.89064	3.6865
7.81924	4.2307
7.74911	4.7224
7.68023	5.1431
7.61256	5.4402
7.54608	5.7844
7.48074	6.0657
7.41653	6.3039
7.35341	6.4902
7.29136	6.529
7.23034	6.5337
7.17033	6.6387
7.11132	6.6667
7.05327	6.5578
6.99616	6.3887
6.93996	6.3901
6.88467	6.4665
6.83024	6.4985
6.77667	6.7065
6.72393	7.0024
6.67201	7.1975
6.62089	7.2241
6.57054	7.1389
6.52095	7.2803
6.4721	7.5647
6.42398	7.9184
6.37657	8.2634
6.32986	8.633
6.28382	8.8935
6.23845	9.0871
6.19373	9.1887
6.14965	9.2978
6.10619	9.4201
6.06334	9.4607
6.02109	9.384
5.97942	9.228
5.93832	8.9455
5.89778	8.8772
5.8578	9.1604
5.81835	9.1799
5.77943	9.084
5.74103	8.9533
5.70314	8.7656
5.66574	8.4941
5.62883	8.3542
5.5924	8.5273
5.55644	8.8503
5.52093	9.166
5.48588	9.488
5.45127	9.7119
5.41709	9.8467
5.38334	10.0793
5.35	10.2888
5.31708	10.6269
5.28456	11.0234
5.25243	10.9787
5.2207	11.0898
5.18934	11.4924
5.15836	12.0337
5.12775	12.3872
5.09749	12.4902
5.0676	12.4577
5.03805	12.0722
5.00884	11.6001
4.97998	11.9113
4.95144	12.3357
4.92322	12.4387
4.89533	12.3972
4.86775	12.3869
4.84048	12.3645
4.81351	12.1784
4.78684	11.8296
4.76047	11.3037
4.73439	10.6382
4.70859	9.998
4.68306	8.602
4.65782	7.4226
4.63284	5.4961
4.60814	4.5852
4.58369	5.8122
4.5595	7.6577
4.53557	8.8064
4.51188	9.4033
4.48845	9.9341
4.46525	10.7246
4.44229	11.3972
4.41957	11.782
4.39708	12.0896
4.37481	12.4546
4.35277	12.8484
4.33096	13.1906
4.30935	13.4238
4.28797	13.6189
4.26679	13.7541
4.24583	13.9023
4.22506	13.9533
4.2045	13.8342
4.18414	13.8239
4.16398	13.8449
4.14401	13.9126
4.12423	14.009
4.10464	14.123
4.08523	14.1626
4.066	14.0942
4.04696	13.9497
4.02809	13.83
4.0094	13.7583
3.99088	13.7712
3.97253	13.8095
3.95435	13.831
3.93634	13.8022
3.91848	13.6899
3.90079	13.5092
3.88326	13.2834
3.86589	13.0398
3.84867	12.8161
3.8316	12.591
3.81468	12.3506
3.79791	12.1023
3.78129	11.834
3.76482	11.5415
3.74848	11.3049
3.73229	11.156
3.71624	11.0178
3.70032	10.9365
3.68454	10.8366
3.6689	10.7116
3.65338	10.5761
3.638	10.4724
3.62275	10.394
3.60762	10.3098
3.59262	10.1667
3.57775	9.935
3.56299	9.6101
3.54836	9.1838
3.53385	8.7615
3.51945	8.3764
3.50517	8.0937
3.49101	7.9592
3.47696	7.7353
3.46303	7.4995
3.4492	7.2253
3.43549	6.9451
3.42188	6.6264
3.40838	6.4231
3.39499	6.3291
3.38171	6.1655
3.36852	5.9538
3.35544	5.6894
3.34246	5.4177
3.32958	5.1401
3.3168	4.8323
3.30411	4.5276
3.29153	4.1863
3.27903	3.9297
3.26664	3.7532
3.25433	3.6611
3.24212	3.5979
3.23	3.4617
3.21797	3.2148
3.20603	2.8713
3.19418	2.5332
3.18241	2.2117
3.17074	1.957
3.15914	1.8257
3.14763	1.8706
3.13621	2.0894
3.12487	2.3472
3.11361	2.563
3.10243	2.7283
3.09133	2.7854
3.0803	2.8042
3.06936	2.8752
3.0585	2.9968
3.04771	3.228
3.037	3.449
3.02636	3.6753
3.0158	3.9333
3.00531	4.1606
2.99489	4.3916
2.98454	4.6304
2.97427	4.8494
2.96407	5.0483
2.95393	5.2549
2.94387	5.5017
2.93387	5.8183
2.92394	6.1423
2.91408	6.4538
2.90429	6.7319
2.89456	6.937
2.88489	7.1394
2.87529	7.3911
2.86576	7.7351
2.85628	8.0696
2.84687	8.4331
2.83752	8.7248
2.82823	8.9043
2.81901	8.8506
2.80984	9.0786
2.80073	9.5002
2.79168	9.7383
2.78269	9.9109
2.77376	9.976
2.76488	9.8796
2.75606	9.7107
2.7473	10.0149
2.73859	10.2995
2.72994	10.5388
2.72134	10.7988
2.7128	11.0224
2.70431	11.0693
2.69587	12.04
2.68748	13.2343
2.67915	14.0459
2.67087	14.6596
2.66264	15.1513
2.65446	15.5283
2.64633	15.8269
2.63825	16.0415
2.63021	16.0534
2.62223	15.9585
2.6143	15.9433
2.60641	16.1298
2.59857	16.4089
2.59078	16.562
2.58304	16.6211
2.57534	16.7744
2.56768	16.9665
2.56008	17.2702
2.55251	17.4846
2.54499	17.6391
2.53752	17.7041
2.53009	17.7536
2.5227	17.7504
2.51536	17.6225
2.50806	17.4389
2.5008	17.0913
2.49358	16.5463
2.4864	15.6958
2.47927	14.6294
2.47218	14.1181
2.46512	14.8169
2.45811	15.769
2.45114	16.4165
2.4442	16.7641
2.43731	16.9367
2.43045	17.0883
2.42363	17.271
2.41685	17.5004
2.41011	17.7519
2.40341	17.9448
2.39674	18.0932
2.39011	18.2355
2.38352	18.3454
2.37696	18.372
2.37044	18.4194
2.36395	18.3955
2.35751	18.4023
2.35109	18.3964
2.34471	18.3295
2.33836	18.3601
2.33205	18.384
2.32578	18.3164
2.31953	18.2236
2.31332	17.978
2.30714	17.4294
2.301	16.8637
2.29489	17.1594
2.28881	17.8151
2.28276	18.1535
2.27675	18.3176
2.27076	18.4042
2.26481	18.5305
2.25889	18.498
2.253	18.5053
2.24714	18.5107
2.24131	18.5734
2.23551	18.5939
2.22974	18.5776
2.224	18.538
2.21829	18.5678
2.21261	18.562
2.20696	18.3994
2.20134	18.4394
2.19574	18.4936
2.19018	18.5542
2.18464	18.5317
2.17913	18.5559
2.17365	18.5278
2.16819	18.5703
2.16277	18.6171
2.15737	18.6186
2.15199	18.5781
2.14665	18.5686
2.14133	18.6044
2.13603	18.5986
2.13077	18.5683
2.12552	18.5988
2.12031	18.6279
2.11512	18.6125
2.10995	18.5893
2.10481	18.5834
2.0997	18.5908
2.09461	18.6181
2.08954	18.6318
2.0845	18.6076
2.07948	18.5393
