Name: Saponite (Ca/2,Na)0.33(Mg,Fe+2)3(Si,Al)4O10(OH)2.H2O
Type: Mineral
Class: Silicates
Subclass: Phyllosilicates (Sheet silicates); Smectite Group
Particle Size: Fine (0-2 Micrometers)
Sample No.: saponite.1
Owner: JHU
Wavelength Range: IR
Origin: Ballarat, California, USA via the Hunt and Salisbury Collection
Description: Sample was a cream-colored, earthy clay. The less than
Measurement: Bidirectional reflectance
X Units: Wavelength (micrometers)
Y Units: Reflectance (percent)
wavelength	value
25.0442	1.0415
24.3388	1.2234
23.6719	1.2065
23.0407	1.4507
22.4422	1.8677
21.8741	1.9062
21.334	2.6091
20.8199	2.6958
20.33	2.6033
19.8627	2.5513
19.4163	2.605
18.9896	2.5039
18.5812	2.1072
18.19	1.9697
17.815	1.4504
17.4551	0.8115
17.1094	0.3352
16.7772	0.2253
16.4576	0.2751
16.15	0.3884
15.8537	0.407
15.568	0.4678
15.2925	0.5901
15.0265	0.6536
14.7697	0.447
14.5214	0.3071
14.2814	0.2473
14.0492	0.2698
13.8244	0.3655
13.6067	0.4595
13.3957	0.5273
13.1912	0.5923
12.9929	0.6416
12.8004	0.6755
12.6135	0.7004
12.432	0.7375
12.2557	0.8364
12.0843	1.0303
11.9176	1.175
11.7555	1.1953
11.5977	1.1733
11.444	1.1555
11.2944	1.0874
11.1487	0.9719
11.0067	0.8259
10.8682	0.7805
10.7332	0.7983
10.6015	0.833
10.473	0.8723
10.3476	0.9646
10.2251	1.1101
10.1056	1.2981
9.98873	1.5405
9.87458	1.8877
9.763	2.3015
9.65392	2.5784
9.54724	2.6008
9.44291	2.4387
9.34082	1.9685
9.24091	1.6672
9.14312	1.5591
9.04739	1.5532
8.95363	1.5781
8.8618	1.6265
8.77183	1.6135
8.68368	1.4321
8.59727	1.0674
8.51257	0.697
8.42951	0.4519
8.34807	0.3525
8.26819	0.3474
8.18981	0.3965
8.11292	0.4819
8.03745	0.5923
7.96337	0.6963
7.89064	0.8037
7.81924	0.8921
7.74911	0.9932
7.68023	1.0928
7.61256	1.1699
7.54608	1.2346
7.48074	1.2949
7.41653	1.3508
7.35341	1.4109
7.29136	1.4919
7.23034	1.5635
7.17033	1.6199
7.11132	1.6755
7.05327	1.7141
6.99616	1.7954
6.93996	1.9028
6.88467	2.0295
6.83024	2.1352
6.77667	2.2402
6.72393	2.4123
6.67201	2.5071
6.62089	2.5723
6.57054	2.5754
6.52095	2.5935
6.4721	2.5447
6.42398	2.4372
6.37657	2.2991
6.32986	2.0334
6.28382	1.5952
6.23845	1.0461
6.19373	0.6506
6.14965	0.5383
6.10619	0.5884
6.06334	0.719
6.02109	0.9038
5.97942	1.1228
5.93832	1.4099
5.89778	1.7803
5.8578	2.1291
5.81835	2.3315
5.77943	2.47
5.74103	2.5056
5.70314	2.5256
5.66574	2.5698
5.62883	2.6343
5.5924	2.7122
5.55644	2.8037
5.52093	2.8818
5.48588	2.9617
5.45127	3.0168
5.41709	3.0242
5.38334	3.0571
5.35	3.0574
5.31708	3.0835
5.28456	3.0872
5.25243	3.1101
5.2207	3.1785
5.18934	3.3447
5.15836	3.5535
5.12775	3.7392
5.09749	3.8782
5.0676	3.9458
5.03805	3.9839
5.00884	4.021
4.97998	4.0378
4.95144	4.0549
4.92322	4.0813
4.89533	4.1167
4.86775	4.1448
4.84048	4.1821
4.81351	4.2251
4.78684	4.2827
4.76047	4.3357
4.73439	4.4145
4.70859	4.4868
4.68306	4.5781
4.65782	4.6614
4.63284	4.7414
4.60814	4.8066
4.58369	4.875
4.5595	4.9265
4.53557	4.9829
4.51188	5.0237
4.48845	5.0703
4.46525	5.1223
4.44229	5.1719
4.41957	5.2109
4.39708	5.2558
4.37481	5.2905
4.35277	5.3391
4.33096	5.3767
4.30935	5.4101
4.28797	5.4502
4.26679	5.4946
4.24583	5.5439
4.22506	5.5935
4.2045	5.6367
4.18414	5.6843
4.16398	5.7265
4.14401	5.7803
4.12423	5.8367
4.10464	5.8894
4.08523	5.9404
4.066	5.9927
4.04696	6.0515
4.02809	6.1001
4.0094	6.1401
3.99088	6.1753
3.97253	6.2107
3.95435	6.2388
3.93634	6.2576
3.91848	6.2807
3.90079	6.2939
3.88326	6.29
3.86589	6.2949
3.84867	6.2798
3.8316	6.2641
3.81468	6.25
3.79791	6.2278
3.78129	6.1999
3.76482	6.1775
3.74848	6.1404
3.73229	6.1033
3.71624	6.0578
3.70032	6.0056
3.68454	5.9475
3.6689	5.9114
3.65338	5.865
3.638	5.8159
3.62275	5.7539
3.60762	5.696
3.59262	5.6216
3.57775	5.5454
3.56299	5.4553
3.54836	5.3667
3.53385	5.2695
3.51945	5.1514
3.50517	4.9975
3.49101	4.9299
3.47696	4.8586
3.46303	4.7698
3.4492	4.6448
3.43549	4.5085
3.42188	4.3215
3.40838	4.1963
3.39499	4.1211
3.38171	3.9885
3.36852	3.874
3.35544	3.7632
3.34246	3.6274
3.32958	3.5149
3.3168	3.3894
3.30411	3.2407
3.29153	3.1047
3.27903	2.9844
3.26664	2.874
3.25433	2.7344
3.24212	2.6123
3.23	2.4773
3.21797	2.3352
3.20603	2.1941
3.19418	2.0605
3.18241	1.9236
3.17074	1.791
3.15914	1.6748
3.14763	1.5618
3.13621	1.4529
3.12487	1.3569
3.11361	1.2856
3.10243	1.2173
3.09133	1.1787
3.0803	1.1306
3.06936	1.1121
3.0585	1.0937
3.04771	1.0635
3.037	1.0273
3.02636	0.9944
3.0158	0.9619
3.00531	0.928
2.99489	0.8823
2.98454	0.8635
2.97427	0.8284
2.96407	0.8118
2.95393	0.7793
2.94387	0.7742
2.93387	0.7561
2.92394	0.7512
2.91408	0.7439
2.90429	0.7432
2.89456	0.7397
2.88489	0.7417
2.87529	0.7532
2.86576	0.7529
2.85628	0.7705
2.84687	0.7737
2.83752	0.7722
2.82823	0.7908
2.81901	0.7969
2.80984	0.8018
2.80073	0.7881
2.79168	0.7698
2.78269	0.7651
2.77376	0.7585
2.76488	0.761
2.75606	0.7332
2.7473	0.739
2.73859	0.7305
2.72994	0.7437
2.72134	0.6531
2.7128	0.7219
2.70431	1.4084
2.69587	2.1248
2.68748	2.7598
2.67915	3.3672
2.67087	3.8367
2.66264	4.2646
2.65446	4.5564
2.64633	4.7661
2.63825	4.9717
2.63021	5.0447
2.62223	5.2058
2.6143	5.2795
2.60641	5.3096
2.59857	5.405
2.59078	5.4758
2.58304	5.4922
2.57534	5.5571
2.56768	5.6057
2.56008	5.6492
2.55251	5.7124
2.54499	5.8169
2.53752	5.8772
2.53009	5.914
2.5227	5.9519
2.51536	6.0212
2.50806	6.0901
2.5008	6.1484
2.49358	6.1736
2.4864	6.2451
2.47927	6.2905
2.47218	6.2673
2.46512	6.2407
2.45811	6.3139
2.45114	6.4126
2.4442	6.4946
2.43731	6.5451
2.43045	6.6035
2.42363	6.6931
2.41685	6.8481
2.41011	6.9324
2.40341	6.8391
2.39674	6.5932
2.39011	6.4995
2.38352	6.6267
2.37696	6.8428
2.37044	7.1037
2.36395	7.2878
2.35751	7.3552
2.35109	7.4241
2.34471	7.47
2.33836	7.3835
2.33205	7.1687
2.32578	6.7077
2.31953	6.1338
2.31332	5.8489
2.30714	6.3105
2.301	6.8308
2.29489	6.7434
2.28881	6.8618
2.28276	7.3647
2.27675	7.8015
2.27076	8.0312
2.26481	8.1706
2.25889	8.2729
2.253	8.3215
2.24714	8.3574
2.24131	8.3506
2.23551	8.4026
2.22974	8.4162
2.224	8.4509
2.21829	8.4638
2.21261	8.5024
2.20696	8.4978
2.20134	8.5083
2.19574	8.5132
2.19018	8.5566
2.18464	8.5603
2.17913	8.553
2.17365	8.5769
2.16819	8.6098
2.16277	8.602
2.15737	8.6167
2.15199	8.5942
2.14665	8.5805
2.14133	8.5666
2.13603	8.5769
2.13077	8.542
2.12552	8.5713
2.12031	8.562
2.11512	8.5664
2.10995	8.5735
2.10481	8.5947
2.0997	8.5989
2.09461	8.6101
2.08954	8.6123
2.0845	8.5971
2.07948	8.6272
