Name: Bialystok
Type: Stony Meteorites
Class: Achondrite
Subclass: Howardite
Particle Size: 0-75 micrometers
Sample No.: Bialystok
Owner: JHU
Origin: Meteorite seen to fall in 1827.  Smithsonian sample without a USNM
Description: None.
Measurement: Bidirectional reflectance
X Units: Wavelength (micrometers)
Y Units: Reflectance (percent)
wavelength	value
25.044	1.0339
24.339	0.8892
23.672	0.9802
23.041	0.9429
22.442	1.0085
21.874	1.0862
21.334	1.0964
20.82	1.2229
20.33	1.2739
19.863	1.3677
19.416	1.2852
18.99	1.1326
18.581	0.9944
18.19	1.0012
17.815	1.0093
17.455	0.9495
17.109	0.9709
16.777	0.9485
16.458	0.8018
16.15	0.6555
15.854	0.6587
15.568	0.6589
15.292	0.5684
15.027	0.4993
14.77	0.4766
14.521	0.6328
14.281	0.7832
14.049	0.9138
13.824	0.7739
13.607	0.7244
13.396	0.8938
13.191	0.9871
12.993	1.0952
12.8	1.2183
12.614	1.4116
12.432	1.5808
12.256	1.602
12.084	1.4939
11.918	1.3401
11.755	1.2556
11.598	1.1992
11.444	1.2024
11.294	1.2087
11.149	1.1423
11.007	0.9636
10.868	0.9534
10.733	1.0142
10.602	0.9824
10.473	0.9739
10.348	0.906
10.225	0.873
10.106	0.897
9.9887	0.9121
9.8746	0.9731
9.763	1.0295
9.6539	1.0483
9.5472	0.9863
9.4429	0.9133
9.3408	0.915
9.2409	0.9536
9.1431	1.0142
9.0474	1.0325
8.9536	0.906
8.8618	0.8008
8.7718	0.6946
8.6837	0.6482
8.5973	0.6318
8.5126	0.6296
8.4295	0.6526
8.3481	0.6909
8.2682	0.7341
8.1898	0.8071
8.1129	0.9419
8.0374	1.1457
7.9634	1.3955
7.8906	1.6643
7.8192	1.9199
7.7491	2.1631
7.6802	2.3738
7.6126	2.522
7.5461	2.7251
7.4807	2.9358
7.4165	3.1348
7.3534	3.2949
7.2914	3.4299
7.2303	3.5879
7.1703	3.727
7.1113	3.8486
7.0533	3.9475
6.9962	4.0268
6.94	4.1174
6.8847	4.1833
6.8302	4.2346
6.7767	4.3401
6.7239	4.4036
6.672	4.4128
6.6209	4.3884
6.5705	4.3166
6.5209	4.321
6.4721	4.3603
6.424	4.3413
6.3766	4.2847
6.3299	4.1267
6.2838	4.0273
6.2385	3.9778
6.1937	3.9353
6.1496	3.9748
6.1062	4.0996
6.0633	4.2107
6.0211	4.2851
5.9794	4.3755
5.9383	4.5913
5.8978	4.9578
5.8578	5.25
5.8184	5.4228
5.7794	5.5764
5.741	5.7112
5.7031	5.7976
5.6657	5.8462
5.6288	5.9057
5.5924	6.0508
5.5564	6.208
5.5209	6.2517
5.4859	6.1836
5.4513	6.0591
5.4171	5.9563
5.3833	5.9272
5.35	5.8337
5.3171	5.6914
5.2846	5.6079
5.2524	5.6323
5.2207	5.7278
5.1893	5.8508
5.1584	5.9729
5.1277	6.0688
5.0975	6.1411
5.0676	6.2251
5.038	6.324
5.0088	6.4416
4.98	6.5893
4.9514	6.7356
4.9232	6.8818
4.8953	7.0156
4.8678	7.175
4.8405	7.3332
4.8135	7.4619
4.7868	7.563
4.7605	7.6872
4.7344	7.8794
4.7086	8.0647
4.6831	8.2107
4.6578	8.324
4.6328	8.4238
4.6081	8.5176
4.5837	8.5996
4.5595	8.6692
4.5356	8.7199
4.5119	8.7546
4.4884	8.7729
4.4652	8.7905
4.4423	8.8027
4.4196	8.8135
4.3971	8.832
4.3748	8.8503
4.3528	8.8738
4.331	8.8979
4.3094	8.9243
4.288	8.9536
4.2668	8.9931
4.2458	9.0246
4.2251	9.0527
4.2045	9.0759
4.1841	9.0937
4.164	9.1045
4.144	9.1208
4.1242	9.1426
4.1046	9.1528
4.0852	9.1636
4.066	9.1823
4.047	9.2029
4.0281	9.216
4.0094	9.2239
3.9909	9.2314
3.9725	9.2361
3.9544	9.2434
3.9363	9.2556
3.9185	9.269
3.9008	9.2666
3.8833	9.2756
3.8659	9.2861
3.8487	9.2868
3.8316	9.2888
3.8147	9.2868
3.7979	9.2859
3.7813	9.2866
3.7648	9.2817
3.7485	9.2788
3.7323	9.2722
3.7162	9.2632
3.7003	9.2466
3.6845	9.2375
3.6689	9.2231
3.6534	9.2141
3.638	9.2085
3.6227	9.195
3.6076	9.1753
3.5926	9.1577
3.5777	9.125
3.563	9.0862
3.5484	9.042
3.5338	8.9824
3.5195	8.8445
3.5052	8.563
3.491	8.5622
3.477	8.6106
3.463	8.5881
3.4492	8.4861
3.4355	8.3415
3.4219	8.0725
3.4084	8.1028
3.395	8.3218
3.3817	8.3535
3.3685	8.4287
3.3554	8.5561
3.3425	8.5991
3.3296	8.5952
3.3168	8.5781
3.3041	8.5354
3.2915	8.4863
3.279	8.4407
3.2666	8.3794
3.2543	8.3225
3.2421	8.2588
3.23	8.1985
3.218	8.1365
3.206	8.0671
3.1942	7.9929
3.1824	7.9192
3.1707	7.8279
3.1591	7.751
3.1476	7.6726
3.1362	7.5954
3.1249	7.5185
3.1136	7.4372
3.1024	7.3716
3.0913	7.3017
3.0803	7.2312
3.0694	7.1775
3.0585	7.123
3.0477	7.0681
3.037	7.0259
3.0264	6.9678
3.0158	6.9158
3.0053	6.8576
2.9949	6.8027
2.9845	6.7727
2.9743	6.7278
2.9641	6.6992
2.9539	6.6758
2.9439	6.6533
2.9339	6.6538
2.9239	6.678
2.9141	6.7021
2.9043	6.7356
2.8946	6.7644
2.8849	6.789
2.8753	6.8345
2.8658	6.8957
2.8563	6.9775
2.8469	7.0923
2.8375	7.2065
2.8282	7.3127
2.819	7.4236
2.8098	7.5491
2.8007	7.7148
2.7917	7.8791
2.7827	8.0578
2.7738	8.2319
2.7649	8.4275
2.7561	8.623
2.7473	8.8598
2.7386	9.049
2.7299	9.2473
2.7213	9.3989
2.7128	9.5493
2.7043	9.6533
2.6959	9.7422
2.6875	9.7898
2.6791	9.8186
2.6709	9.8398
2.6626	9.8855
2.6545	9.9043
2.6463	9.8996
2.6382	9.885
2.6302	9.8569
2.6222	9.8415
2.6143	9.8093
2.6064	9.7895
2.5986	9.7534
2.5908	9.7295
2.583	9.6892
2.5753	9.6506
2.5677	9.624
2.5601	9.5981
2.5525	9.5544
2.545	9.5198
2.5375	9.4768
2.5301	9.4402
2.5227	9.4096
2.5154	9.3686
2.5081	9.3325
2.5008	9.2812
2.4936	9.237
2.4864	9.1977
2.4793	9.1504
2.4722	9.0971
2.4651	9.0608
2.4581	9.0359
2.4511	8.9653
2.4442	8.9118
2.4373	8.8667
2.4305	8.8281
2.4236	8.7842
2.4169	8.7092
2.4101	8.6618
2.4034	8.6152
2.3967	8.5549
2.3901	8.5344
2.3835	8.4673
2.377	8.4214
2.3704	8.3618
2.364	8.3059
2.3575	8.2651
2.3511	8.2156
2.3447	8.1567
2.3384	8.1035
2.3321	8.0305
2.3258	7.9905
2.3195	7.9429
2.3133	7.8935
2.3071	7.8432
2.301	7.8086
2.2949	7.7178
2.2888	7.7024
2.2828	7.623
2.2767	7.5913
2.2708	7.529
2.2648	7.4934
2.2589	7.4421
2.253	7.3938
2.2471	7.3708
2.2413	7.2866
2.2355	7.251
2.2297	7.2102
2.224	7.1767
2.2183	7.1103
2.2126	7.0698
2.207	7.0224
2.2013	6.9841
2.1957	6.9346
2.1902	6.9211
2.1846	6.8476
2.1791	6.8269
2.1736	6.8003
2.1682	6.7883
2.1628	6.718
2.1574	6.6806
2.152	6.6606
2.1466	6.6428
2.1413	6.5981
2.136	6.5771
2.1308	6.5212
2.1255	6.5178
2.1203	6.4817
2.1151	6.428
2.11	6.4255
2.1048	6.4429
2.0997	6.3984
2.0946	6.3879
2.0895	6.3603
2.0845	6.3523
2.0795	6.3086
