Name: Tierra Blanca
Type: Stony Meteorites
Class: Anomalous
Particle Size: 0-75 micrometers
Sample No.: Tierra Blanca
Owner: JHU
Origin: Meteorite found in 1965.  Smithsonian sample No. USNM 6154.
Description: Weathered.
Measurement: Bidirectional reflectance
X Units: Wavelength (micrometers)
Y Units: Reflectance (percent)
wavelength	value
25.044	0.8081
24.339	0.8142
23.672	0.7353
23.041	0.7544
22.442	0.7329
21.874	0.7388
21.334	0.583
20.82	0.647
20.33	0.7236
19.863	0.8281
19.416	0.8625
18.99	0.7258
18.581	0.7109
18.19	0.6978
17.815	0.6252
17.455	0.6272
17.109	0.6472
16.777	0.5977
16.458	0.531
16.15	0.4543
15.854	0.3933
15.568	0.342
15.292	0.2832
15.027	0.3245
14.77	0.4067
14.521	0.467
14.281	0.5449
14.049	0.6521
13.824	0.6455
13.607	0.7502
13.396	0.8706
13.191	1.0884
12.993	1.1777
12.8	1.1511
12.614	1.1265
12.432	1.1477
12.256	1.1418
12.084	1.0403
11.918	0.917
11.755	0.8765
11.598	0.8933
11.444	0.9028
11.294	0.8057
11.149	0.7441
11.007	0.7524
10.868	0.8208
10.733	0.8931
10.602	0.9189
10.473	0.9412
10.348	0.866
10.225	0.8435
10.106	0.8018
9.9887	0.667
9.8746	0.6575
9.763	0.5405
9.6539	0.5605
9.5472	0.7026
9.4429	0.7439
9.3408	0.7468
9.2409	0.7153
9.1431	0.6912
9.0474	0.6963
8.9536	0.6885
8.8618	0.625
8.7718	0.5801
8.6837	0.5266
8.5973	0.477
8.5126	0.4687
8.4295	0.4878
8.3481	0.5356
8.2682	0.6111
8.1898	0.7175
8.1129	0.8733
8.0374	1.0908
7.9634	1.3906
7.8906	1.7129
7.8192	1.9714
7.7491	2.1475
7.6802	2.2561
7.6126	2.322
7.5461	2.3957
7.4807	2.5017
7.4165	2.5891
7.3534	2.6802
7.2914	2.7627
7.2303	2.8726
7.1703	2.9653
7.1113	3.0286
7.0533	3.0547
6.9962	3.082
6.94	3.1164
6.8847	3.137
6.8302	3.1763
6.7767	3.2065
6.7239	3.2236
6.672	3.2014
6.6209	3.2065
6.5705	3.2505
6.5209	3.2851
6.4721	3.2949
6.424	3.2898
6.3766	3.2439
6.3299	3.1533
6.2838	3.0847
6.2385	2.9651
6.1937	2.8174
6.1496	2.6768
6.1062	2.6157
6.0633	2.6506
6.0211	2.7366
5.9794	2.9148
5.9383	3.1841
5.8978	3.3887
5.8578	3.5085
5.8184	3.5972
5.7794	3.6631
5.741	3.7009
5.7031	3.7226
5.6657	3.7219
5.6288	3.7153
5.5924	3.7556
5.5564	3.8894
5.5209	3.9509
5.4859	3.9634
5.4513	3.9822
5.4171	4.0281
5.3833	4.0974
5.35	4.1362
5.3171	4.1641
5.2846	4.1567
5.2524	4.1506
5.2207	4.1223
5.1893	4.0664
5.1584	4.0173
5.1277	4.0085
5.0975	4.0412
5.0676	4.0933
5.038	4.1496
5.0088	4.1916
4.98	4.2185
4.9514	4.229
4.9232	4.2312
4.8953	4.2639
4.8678	4.2991
4.8405	4.3345
4.8135	4.3801
4.7868	4.4331
4.7605	4.4819
4.7344	4.5276
4.7086	4.5632
4.6831	4.5871
4.6578	4.6047
4.6328	4.6287
4.6081	4.6619
4.5837	4.6831
4.5595	4.7097
4.5356	4.7246
4.5119	4.7261
4.4884	4.7314
4.4652	4.7314
4.4423	4.728
4.4196	4.7278
4.3971	4.7283
4.3748	4.7234
4.3528	4.7214
4.331	4.7129
4.3094	4.7075
4.288	4.6936
4.2668	4.6621
4.2458	4.6933
4.2251	4.7009
4.2045	4.7012
4.1841	4.6965
4.164	4.6885
4.144	4.6782
4.1242	4.6689
4.1046	4.6567
4.0852	4.6465
4.066	4.6333
4.047	4.6213
4.0281	4.6052
4.0094	4.5874
3.9909	4.5608
3.9725	4.5371
3.9544	4.5093
3.9363	4.4814
3.9185	4.4551
3.9008	4.4267
3.8833	4.3945
3.8659	4.3655
3.8487	4.3293
3.8316	4.2976
3.8147	4.2607
3.7979	4.2212
3.7813	4.188
3.7648	4.1489
3.7485	4.1125
3.7323	4.0764
3.7162	4.0298
3.7003	3.9868
3.6845	3.9446
3.6689	3.8989
3.6534	3.8577
3.638	3.8169
3.6227	3.7761
3.6076	3.7309
3.5926	3.6892
3.5777	3.6462
3.563	3.5996
3.5484	3.5591
3.5338	3.5149
3.5195	3.457
3.5052	3.3979
3.491	3.3603
3.477	3.3245
3.463	3.2825
3.4492	3.2246
3.4355	3.1704
3.4219	3.0986
3.4084	3.0527
3.395	3.0242
3.3817	2.9883
3.3685	2.9409
3.3554	2.9033
3.3425	2.8518
3.3296	2.7986
3.3168	2.7397
3.3041	2.6765
3.2915	2.6096
3.279	2.5435
3.2666	2.477
3.2543	2.4123
3.2421	2.344
3.23	2.281
3.218	2.2078
3.206	2.1555
3.1942	2.092
3.1824	2.0478
3.1707	1.998
3.1591	1.9575
3.1476	1.9297
3.1362	1.9011
3.1249	1.8816
3.1136	1.864
3.1024	1.853
3.0913	1.8459
3.0803	1.8406
3.0694	1.845
3.0585	1.8469
3.0477	1.8538
3.037	1.8562
3.0264	1.8506
3.0158	1.8547
3.0053	1.8586
2.9949	1.8411
2.9845	1.8406
2.9743	1.8262
2.9641	1.8101
2.9539	1.8044
2.9439	1.8042
2.9339	1.8281
2.9239	1.8567
2.9141	1.8838
2.9043	1.9263
2.8946	1.9553
2.8849	1.9966
2.8753	2.0366
2.8658	2.0823
2.8563	2.1428
2.8469	2.1912
2.8375	2.2607
2.8282	2.3428
2.819	2.4209
2.8098	2.5068
2.8007	2.6074
2.7917	2.7273
2.7827	2.8867
2.7738	3.0764
2.7649	3.2622
2.7561	3.4463
2.7473	3.6309
2.7386	3.811
2.7299	3.9809
2.7213	4.1296
2.7128	4.2607
2.7043	4.3623
2.6959	4.4365
2.6875	4.4946
2.6791	4.5356
2.6709	4.5642
2.6626	4.5967
2.6545	4.6138
2.6463	4.6113
2.6382	4.6238
2.6302	4.6162
2.6222	4.6013
2.6143	4.6216
2.6064	4.6111
2.5986	4.6077
2.5908	4.6062
2.583	4.595
2.5753	4.5847
2.5677	4.581
2.5601	4.5828
2.5525	4.5652
2.545	4.5688
2.5375	4.5513
2.5301	4.5315
2.5227	4.5361
2.5154	4.5286
2.5081	4.5237
2.5008	4.5198
2.4936	4.511
2.4864	4.501
2.4793	4.5044
2.4722	4.4929
2.4651	4.4783
2.4581	4.4665
2.4511	4.4744
2.4442	4.4516
2.4373	4.4431
2.4305	4.4438
2.4236	4.425
2.4169	4.427
2.4101	4.4101
2.4034	4.4133
2.3967	4.4001
2.3901	4.3911
2.3835	4.3928
2.377	4.3808
2.3704	4.3743
2.364	4.3745
2.3575	4.3711
2.3511	4.3735
2.3447	4.3574
2.3384	4.3677
2.3321	4.3613
2.3258	4.3547
2.3195	4.3555
2.3133	4.3381
2.3071	4.3259
2.301	4.3386
2.2949	4.3284
2.2888	4.3059
2.2828	4.323
2.2767	4.3198
2.2708	4.3208
2.2648	4.303
2.2589	4.3127
2.253	4.3071
2.2471	4.3137
2.2413	4.3103
2.2355	4.3118
2.2297	4.2966
2.224	4.2754
2.2183	4.2847
2.2126	4.2866
2.207	4.2742
2.2013	4.2732
2.1957	4.2817
2.1902	4.27
2.1846	4.2593
2.1791	4.259
2.1736	4.2622
2.1682	4.2539
2.1628	4.2468
2.1574	4.262
2.152	4.2463
2.1466	4.2317
2.1413	4.2544
2.136	4.2344
2.1308	4.2424
2.1255	4.2309
2.1203	4.2361
2.1151	4.2373
2.11	4.2331
2.1048	4.2556
2.0997	4.2231
2.0946	4.2405
2.0895	4.2244
2.0845	4.2261
2.0795	4.219
