Name: Allende4
Type: Stony Meteorites
Class: Carbonaceous Chondrite
Subclass: CV3
Particle Size: 0-75 micrometers
Sample No.: Allende4
Owner: JHU
Origin: Meteorite seen to fall in Mexico in 1969.  Sample from Arizona State
Description: None.
Measurement: Bidirectional reflectance
X Units: Wavelength (micrometers)
Y Units: Reflectance (percent)
wavelength	value
25.044	0.2668
24.339	0.3669
23.672	0.2798
23.041	0.3079
22.442	0.385
21.874	0.3579
21.334	0.3171
20.82	0.301
20.33	0.3193
19.863	0.3567
19.416	0.394
18.99	0.3584
18.581	0.3081
18.19	0.3042
17.815	0.3052
17.455	0.3154
17.109	0.2903
16.777	0.2563
16.458	0.2405
16.15	0.2502
15.854	0.3296
15.568	0.376
15.292	0.4348
15.027	0.468
14.77	0.4946
14.521	0.541
14.281	0.625
14.049	0.6926
13.824	0.7761
13.607	0.8391
13.396	0.9338
13.191	1.0381
12.993	1.0984
12.8	1.1103
12.614	1.0923
12.432	1.0308
12.256	0.8655
12.084	0.5923
11.918	0.4534
11.755	0.4824
11.598	0.4924
11.444	0.5273
11.294	0.5247
11.149	0.5137
11.007	0.5234
10.868	0.5222
10.733	0.5229
10.602	0.4758
10.473	0.4255
10.348	0.4045
10.225	0.4031
10.106	0.3826
9.9887	0.3738
9.8746	0.3845
9.763	0.4075
9.6539	0.4583
9.5472	0.5132
9.4429	0.5151
9.3408	0.4973
9.2409	0.4727
9.1431	0.4902
9.0474	0.5688
8.9536	0.6602
8.8618	0.75
8.7718	0.8074
8.6837	0.8542
8.5973	0.918
8.5126	0.9622
8.4295	1.0142
8.3481	1.0698
8.2682	1.1194
8.1898	1.1621
8.1129	1.1982
8.0374	1.2434
7.9634	1.2747
7.8906	1.3027
7.8192	1.3254
7.7491	1.3516
7.6802	1.3669
7.6126	1.3806
7.5461	1.4067
7.4807	1.4233
7.4165	1.4465
7.3534	1.4539
7.2914	1.4602
7.2303	1.4722
7.1703	1.4814
7.1113	1.4958
7.0533	1.5093
6.9962	1.5266
6.94	1.5405
6.8847	1.543
6.8302	1.5442
6.7767	1.5627
6.7239	1.5818
6.672	1.5781
6.6209	1.5842
6.5705	1.5872
6.5209	1.5898
6.4721	1.5872
6.424	1.5769
6.3766	1.5625
6.3299	1.5552
6.2838	1.552
6.2385	1.5605
6.1937	1.5718
6.1496	1.5754
6.1062	1.5708
6.0633	1.5405
6.0211	1.5312
5.9794	1.5408
5.9383	1.553
5.8978	1.5615
5.8578	1.5684
5.8184	1.5786
5.7794	1.5796
5.741	1.5618
5.7031	1.5361
5.6657	1.5242
5.6288	1.5305
5.5924	1.5522
5.5564	1.5674
5.5209	1.583
5.4859	1.5911
5.4513	1.5867
5.4171	1.5957
5.3833	1.6062
5.35	1.614
5.3171	1.6213
5.2846	1.6189
5.2524	1.6274
5.2207	1.6296
5.1893	1.635
5.1584	1.637
5.1277	1.6399
5.0975	1.6492
5.0676	1.6467
5.038	1.6553
5.0088	1.6516
4.98	1.6519
4.9514	1.6565
4.9232	1.6545
4.8953	1.6633
4.8678	1.6623
4.8405	1.6711
4.8135	1.6741
4.7868	1.6733
4.7605	1.6787
4.7344	1.6787
4.7086	1.6728
4.6831	1.679
4.6578	1.676
4.6328	1.6782
4.6081	1.6831
4.5837	1.6875
4.5595	1.6948
4.5356	1.6877
4.5119	1.687
4.4884	1.6904
4.4652	1.6897
4.4423	1.6863
4.4196	1.6877
4.3971	1.6887
4.3748	1.6855
4.3528	1.6853
4.331	1.6811
4.3094	1.6848
4.288	1.6809
4.2668	1.6768
4.2458	1.6807
4.2251	1.6721
4.2045	1.6692
4.1841	1.6687
4.164	1.6667
4.144	1.6643
4.1242	1.6653
4.1046	1.6628
4.0852	1.6648
4.066	1.6602
4.047	1.6665
4.0281	1.6614
4.0094	1.6558
3.9909	1.6636
3.9725	1.6594
3.9544	1.6606
3.9363	1.6531
3.9185	1.6533
3.9008	1.6545
3.8833	1.6523
3.8659	1.6577
3.8487	1.6482
3.8316	1.6394
3.8147	1.6423
3.7979	1.6409
3.7813	1.6377
3.7648	1.6396
3.7485	1.6311
3.7323	1.6248
3.7162	1.626
3.7003	1.6191
3.6845	1.6096
3.6689	1.6086
3.6534	1.6082
3.638	1.6023
3.6227	1.6001
3.6076	1.5974
3.5926	1.5925
3.5777	1.5918
3.563	1.5854
3.5484	1.5889
3.5338	1.5791
3.5195	1.5642
3.5052	1.5496
3.491	1.5427
3.477	1.5447
3.463	1.5532
3.4492	1.5413
3.4355	1.5203
3.4219	1.5061
3.4084	1.5112
3.395	1.5156
3.3817	1.5046
3.3685	1.5183
3.3554	1.5286
3.3425	1.5327
3.3296	1.521
3.3168	1.5203
3.3041	1.5215
3.2915	1.5156
3.279	1.5105
3.2666	1.5041
3.2543	1.501
3.2421	1.5
3.23	1.4873
3.218	1.4932
3.206	1.4851
3.1942	1.4846
3.1824	1.4731
3.1707	1.4719
3.1591	1.4685
3.1476	1.4648
3.1362	1.4609
3.1249	1.458
3.1136	1.4512
3.1024	1.4487
3.0913	1.4519
3.0803	1.4441
3.0694	1.4358
3.0585	1.4316
3.0477	1.429
3.037	1.4311
3.0264	1.4294
3.0158	1.4119
3.0053	1.4153
2.9949	1.417
2.9845	1.4092
2.9743	1.4075
2.9641	1.4031
2.9539	1.3936
2.9439	1.3923
2.9339	1.3987
2.9239	1.3835
2.9141	1.3755
2.9043	1.3816
2.8946	1.3806
2.8849	1.3733
2.8753	1.3706
2.8658	1.3667
2.8563	1.3835
2.8469	1.3748
2.8375	1.3713
2.8282	1.3748
2.819	1.3686
2.8098	1.3704
2.8007	1.3752
2.7917	1.3684
2.7827	1.364
2.7738	1.3767
2.7649	1.3789
2.7561	1.3743
2.7473	1.3796
2.7386	1.3828
2.7299	1.3838
2.7213	1.3769
2.7128	1.376
2.7043	1.3809
2.6959	1.3769
2.6875	1.386
2.6791	1.3835
2.6709	1.3757
2.6626	1.3831
2.6545	1.3789
2.6463	1.3684
2.6382	1.3735
2.6302	1.3728
2.6222	1.3638
2.6143	1.3689
2.6064	1.3655
2.5986	1.3557
2.5908	1.3684
2.583	1.3667
2.5753	1.3518
2.5677	1.3542
2.5601	1.3523
2.5525	1.3586
2.545	1.3503
2.5375	1.3374
2.5301	1.3469
2.5227	1.3506
2.5154	1.3379
2.5081	1.3281
2.5008	1.3408
2.4936	1.3413
2.4864	1.3445
2.4793	1.3394
2.4722	1.3347
2.4651	1.3091
2.4581	1.3311
2.4511	1.3157
2.4442	1.3215
2.4373	1.3218
2.4305	1.3345
2.4236	1.3281
2.4169	1.3086
2.4101	1.3005
2.4034	1.2959
2.3967	1.304
2.3901	1.3096
2.3835	1.3081
2.377	1.3005
2.3704	1.3049
2.364	1.2978
2.3575	1.3108
2.3511	1.2932
2.3447	1.2939
2.3384	1.283
2.3321	1.2966
2.3258	1.3035
2.3195	1.2957
2.3133	1.293
2.3071	1.3064
2.301	1.3091
2.2949	1.304
2.2888	1.2734
2.2828	1.2954
2.2767	1.2874
2.2708	1.2925
2.2648	1.2922
2.2589	1.2998
2.253	1.2959
2.2471	1.2927
2.2413	1.2832
2.2355	1.29
2.2297	1.2727
2.224	1.3
2.2183	1.2908
2.2126	1.281
2.207	1.2683
2.2013	1.2727
2.1957	1.3037
2.1902	1.2854
2.1846	1.28
2.1791	1.2883
2.1736	1.2893
2.1682	1.2637
2.1628	1.2766
2.1574	1.2825
2.152	1.2666
2.1466	1.2624
2.1413	1.251
2.136	1.2698
2.1308	1.2876
2.1255	1.2527
2.1203	1.2649
2.1151	1.2707
2.11	1.2732
2.1048	1.2512
2.0997	1.28
2.0946	1.2722
2.0895	1.2537
2.0845	1.2651
2.0795	1.2451
