Name: Natrolite Na2Al2Si3O10.2H2O
Type: Mineral
Class: Silicates
Subclass: Tectosilicates (Framework Silicates); (ZeoliteGroup)
Particle Size: Fine  (Less than 2 Micrometers)
Sample No.: natrol.1
Owner: JHU
Wavelength Range: IR
Origin: Poonah, India via Hunt and Salisbury Collection #169B
Description: The sample appeared to be pure natrolite, although most
Measurement: Transmission
X Units: Wavelength (micrometers)
Y Units: Transmittance (percent)
wavelength	value
25.0442	63.4608
24.3388	48.5643
23.6719	31.1796
23.0407	48.1952
22.4422	48.0077
21.8741	58.9696
21.334	60.535
20.8199	55.7127
20.33	51.8055
19.8627	56.1795
19.4163	53.9105
18.9896	63.1746
18.5812	62.6117
18.19	62.9383
17.815	65.8953
17.4551	62.5218
17.1094	59.9022
16.7772	57.3421
16.4576	54.6551
16.15	45.122
15.8537	42.4696
15.568	56.2557
15.2925	57.5428
15.0265	60.2205
14.7697	53.4076
14.5214	56.4315
14.2814	58.1371
14.0492	60.9637
13.8244	60.1063
13.6067	66.4483
13.3957	69.0125
13.1912	71.6043
12.9929	74.366
12.8004	77.4268
12.6135	80.0682
12.432	82.4383
12.2557	83.2566
12.0843	82.6541
11.9176	80.1797
11.7555	76.9756
11.5977	74.2081
11.444	72.0206
11.2944	70.9962
11.1487	70.3499
11.0067	68.826
10.8682	65.1995
10.7332	58.076
10.6015	46.4467
10.473	30.2619
10.3476	10.8872
10.2251	7.0893
10.1056	4.4529
9.98873	5.2788
9.87458	10.0249
9.763	20.1594
9.65392	19.9487
9.54724	15.8947
9.44291	12.9094
9.34082	14.0478
9.24091	17.7656
9.14312	16.9816
9.04739	23.2951
8.95363	32.3947
8.8618	41.4599
8.77183	47.5978
8.68368	53.2723
8.59727	58.9498
8.51257	64.7762
8.42951	70.3592
8.34807	75.0789
8.26819	78.5965
8.18981	80.9978
8.11292	82.6331
8.03745	83.8504
7.96337	84.7918
7.89064	85.5008
7.81924	86.2322
7.74911	86.5984
7.68023	87.2063
7.61256	87.5598
7.54608	87.9512
7.48074	88.261
7.41653	88.5322
7.35341	88.6594
7.29136	88.8074
7.23034	89.0452
7.17033	89.1619
7.11132	89.2976
7.05327	89.4407
6.99616	89.6699
6.93996	89.7078
6.88467	89.6853
6.83024	89.8889
6.77667	90.095
6.72393	90.4385
6.67201	90.5432
6.62089	90.6355
6.57054	90.678
6.52095	90.5969
6.4721	90.5281
6.42398	90.3069
6.37657	90.0603
6.32986	89.637
6.28382	89.2312
6.23845	88.4046
6.19373	87.1702
6.14965	83.3443
6.10619	81.9661
6.06334	84.947
6.02109	86.2102
5.97942	87.301
5.93832	88.5982
5.89778	89.5618
5.8578	90.2014
5.81835	90.7092
5.77943	90.9109
5.74103	91.2605
5.70314	91.5505
5.66574	91.7048
5.62883	91.8899
5.5924	91.9412
5.55644	92.0667
5.52093	92.1336
5.48588	92.1155
5.45127	92.3279
5.41709	92.4421
5.38334	92.5501
5.35	92.6223
5.31708	92.7678
5.28456	92.8987
5.25243	92.9436
5.2207	93.0383
5.18934	93.0574
5.15836	93.093
5.12775	93.0496
5.09749	93.0867
5.0676	93.0266
5.03805	92.9524
5.00884	93.0725
4.97998	93.0894
4.95144	93.1587
4.92322	93.0276
4.89533	93.043
4.86775	92.9436
4.84048	92.9116
4.81351	92.8877
4.78684	92.7932
4.76047	92.6265
4.73439	92.2715
4.70859	91.7161
4.68306	91.1902
4.65782	91.1621
4.63284	91.6524
4.60814	92.1821
4.58369	92.5217
4.5595	92.531
4.53557	92.6248
4.51188	92.6336
4.48845	92.7129
4.46525	92.793
4.44229	92.8381
4.41957	92.8945
4.39708	92.8992
4.37481	92.9778
4.35277	92.968
4.33096	92.9876
4.30935	92.9985
4.28797	92.9658
4.26679	93.0418
4.24583	93.0022
4.22506	93.0596
4.2045	93.0674
4.18414	93.0664
4.16398	93.1289
4.14401	93.0877
4.12423	93.2097
4.10464	93.2615
4.08523	93.2844
4.066	93.2219
4.04696	93.262
4.02809	93.2961
4.0094	93.3318
3.99088	93.3435
3.97253	93.4119
3.95435	93.3635
3.93634	93.3164
3.91848	93.3704
3.90079	93.345
3.88326	93.2878
3.86589	93.282
3.84867	93.2107
3.8316	93.1301
3.81468	93.1213
3.79791	93.084
3.78129	92.9324
3.76482	92.8662
3.74848	92.8513
3.73229	92.6511
3.71624	92.614
3.70032	92.4219
3.68454	92.3565
3.6689	92.2766
3.65338	92.0442
3.638	92.0374
3.62275	91.8467
3.60762	91.7288
3.59262	91.53
3.57775	91.4334
3.56299	91.2224
3.54836	90.9739
3.53385	90.7171
3.51945	90.4697
3.50517	90.1055
3.49101	90.0213
3.47696	89.7764
3.46303	89.5791
3.4492	89.3318
3.43549	88.9153
3.42188	88.3633
3.40838	88.1084
3.39499	88.0791
3.38171	87.7586
3.36852	87.5823
3.35544	87.3174
3.34246	87.0672
3.32958	86.6111
3.3168	86.095
3.30411	85.6844
3.29153	85.242
3.27903	84.794
3.26664	84.3408
3.25433	83.8035
3.24212	83.3262
3.23	82.7625
3.21797	82.2344
3.20603	81.4932
3.19418	80.6785
3.18241	79.5127
3.17074	78.1123
3.15914	76.4803
3.14763	75.0286
3.13621	74.3421
3.12487	74.032
3.11361	73.5643
3.10243	72.9197
3.09133	72.9437
3.0803	73.1663
3.06936	72.8016
3.0585	72.0115
3.04771	70.6898
3.037	68.0482
3.02636	63.5863
3.0158	57.1278
3.00531	54.1761
2.99489	57.9857
2.98454	61.7684
2.97427	63.867
2.96407	64.6859
2.95393	64.9339
2.94387	65.1248
2.93387	65.6976
2.92394	65.9549
2.91408	66.2547
2.90429	66.5184
2.89456	66.5438
2.88489	66.4241
2.87529	66.7327
2.86576	67.4295
2.85628	67.3905
2.84687	64.9652
2.83752	57.2293
2.82823	45.455
2.81901	47.6503
2.80984	57.7035
2.80073	63.7625
2.79168	67.6312
2.78269	70.5526
2.77376	72.6663
2.76488	75.0335
2.75606	77.2679
2.7473	79.4793
2.73859	81.4627
2.72994	83.4217
2.72134	84.951
2.7128	86.0652
2.70431	86.6043
2.69587	87.1194
2.68748	87.2737
2.67915	87.6814
2.67087	87.9124
2.66264	87.8006
2.65446	87.905
2.64633	87.8382
2.63825	88.1287
2.63021	88.2019
2.62223	88.1077
2.6143	88.3435
2.60641	88.2049
2.59857	88.346
2.59078	88.3928
2.58304	88.572
2.57534	88.3342
2.56768	88.2776
2.56008	88.3406
2.55251	88.2547
2.54499	88.3172
2.53752	88.4246
2.53009	88.4187
2.5227	88.1736
2.51536	88.1658
2.50806	88.3963
2.5008	88.2273
2.49358	88.1961
2.4864	88.2957
2.47927	88.1463
2.47218	88.0183
2.46512	87.9646
2.45811	88.28
2.45114	87.9158
2.4442	87.7986
2.43731	87.9939
2.43045	87.8123
2.42363	88.0584
2.41685	87.824
2.41011	87.9656
2.40341	87.8865
2.39674	88.0994
2.39011	87.8367
2.38352	87.9617
2.37696	87.8523
2.37044	87.9256
2.36395	87.7263
2.35751	87.7244
2.35109	88.0076
2.34471	87.7625
2.33836	87.7937
2.33205	87.6687
2.32578	87.5896
2.31953	87.7429
2.31332	87.7234
2.30714	87.7771
2.301	87.6209
2.29489	87.6023
2.28881	87.8914
2.28276	87.5681
2.27675	87.614
2.27076	87.6092
2.26481	87.8162
2.25889	87.5623
2.253	87.9412
2.24714	87.5945
2.24131	87.4617
2.23551	87.8679
2.22974	87.9343
2.224	87.5281
2.21829	87.5818
2.21261	87.531
2.20696	87.6951
2.20134	87.4812
2.19574	87.7185
2.19018	87.8377
2.18464	87.4187
2.17913	87.4256
2.17365	87.8279
2.16819	87.9422
2.16277	88.0711
2.15737	88.0408
2.15199	87.7439
2.14665	87.4724
2.14133	87.822
2.13603	87.7107
2.13077	88.033
2.12552	87.7049
2.12031	87.865
2.11512	88.1716
2.10995	87.7459
2.10481	87.8631
2.0997	87.9549
2.09461	88.3552
2.08954	88.1814
2.0845	87.9549
2.07948	87.867
