Name: Sanidine (K,Na)Al3O8
Type: Mineral
Class: Silicates
Subclass: Tectosilicates (Feldspar Group)
Particle Size: Fine (Less than 2 Micrometers)
Sample No.: sanidine.1
Owner: JHU
Wavelength Range: IR
Origin: Volkesfeld bei Kempenick, Eifel, Rheinland, Germany via Dave
Description: The hand sample was a large (56.16 g) fragment of what
Measurement: Transmission
X Units: Wavelength (micrometers)
Y Units: Transmittance (percent)
wavelength	value
25.0442	58.7596
24.3388	54.7889
23.6719	50.869
23.0407	50.3329
22.4422	57.576
21.8741	68.3768
21.334	74.3318
20.8199	79.6365
20.33	82.6136
19.8627	82.8318
19.4163	81.5779
18.9896	79.1766
18.5812	70.3499
18.19	66.0291
17.815	67.4022
17.4551	60.9588
17.1094	57.1219
16.7772	62.1322
16.4576	67.6917
16.15	71.1805
15.8537	71.8135
15.568	71.4571
15.2925	80.8633
15.0265	83.9932
14.7697	84.7273
14.5214	83.2586
14.2814	78.4571
14.0492	75.2618
13.8244	74.2891
13.6067	75.2247
13.3957	76.6573
13.1912	77.1692
12.9929	76.8204
12.8004	78.0213
12.6135	81.2654
12.432	87.9522
12.2557	90.5547
12.0843	88.8684
11.9176	86.6126
11.7555	84.1241
11.5977	81.595
11.444	78.9935
11.2944	76.417
11.1487	73.4649
11.0067	69.9529
10.8682	66.2669
10.7332	62.4305
10.6015	57.6197
10.473	52.2914
10.3476	46.7772
10.2251	41.7367
10.1056	37.5946
9.98873	34.4301
9.87458	32.6684
9.763	32.038
9.65392	31.8603
9.54724	32.9399
9.44291	36.0998
9.34082	41.0551
9.24091	43.8817
9.14312	44.0541
9.04739	43.0692
8.95363	42.1073
8.8618	41.9154
8.77183	42.9042
8.68368	45.9511
8.59727	50.8402
8.51257	55.4637
8.42951	59.3954
8.34807	62.8443
8.26819	65.6969
8.18981	67.8221
8.11292	69.4559
8.03745	70.9193
7.96337	72.3748
7.89064	73.5076
7.81924	74.4776
7.74911	75.4285
7.68023	76.219
7.61256	77.0003
7.54608	77.6888
7.48074	78.3255
7.41653	78.8392
7.35341	79.3841
7.29136	79.8821
7.23034	80.1546
7.17033	81.0552
7.11132	81.6331
7.05327	81.9341
6.99616	82.408
6.93996	82.8626
6.88467	83.1546
6.83024	83.386
6.77667	83.6348
6.72393	83.9695
6.67201	84.3426
6.62089	84.6575
6.57054	85.0008
6.52095	85.2198
6.4721	85.4331
6.42398	85.6043
6.37657	85.6775
6.32986	85.7354
6.28382	85.7354
6.23845	85.5525
6.19373	85.0647
6.14965	84.6746
6.10619	85.0144
6.06334	85.5105
6.02109	86.8106
5.97942	87.7781
5.93832	87.7881
5.89778	87.7278
5.8578	87.8089
5.81835	88.0112
5.77943	88.1914
5.74103	88.2659
5.70314	88.2959
5.66574	88.3277
5.62883	88.4082
5.5924	88.5435
5.55644	88.6521
5.52093	88.8069
5.48588	88.9768
5.45127	89.1951
5.41709	89.3501
5.38334	89.4417
5.35	89.5903
5.31708	89.719
5.28456	89.864
5.25243	90.0122
5.2207	90.1096
5.18934	90.2454
5.15836	90.3511
5.12775	90.5081
5.09749	90.6589
5.0676	90.7688
5.03805	90.8665
5.00884	90.9539
4.97998	91.0169
4.95144	91.1126
4.92322	91.1238
4.89533	91.178
4.86775	91.2207
4.84048	91.2434
4.81351	91.334
4.78684	91.3689
4.76047	91.4563
4.73439	91.5154
4.70859	91.5413
4.68306	91.5554
4.65782	91.6018
4.63284	91.6961
4.60814	91.8938
4.58369	91.7947
4.5595	91.8399
4.53557	91.9114
4.51188	91.9539
4.48845	92.0471
4.46525	92.0759
4.44229	92.0647
4.41957	92.1287
4.39708	92.2073
4.37481	92.2571
4.35277	92.2898
4.33096	92.3484
4.30935	92.3733
4.28797	92.4314
4.26679	92.437
4.24583	92.4819
4.22506	92.5005
4.2045	92.4929
4.18414	92.551
4.16398	92.5752
4.14401	92.5169
4.12423	92.5986
4.10464	92.6541
4.08523	92.6284
4.066	92.5586
4.04696	92.5996
4.02809	92.6101
4.0094	92.6187
3.99088	92.6218
3.97253	92.5667
3.95435	92.6616
3.93634	92.6694
3.91848	92.7415
3.90079	92.7813
3.88326	92.7065
3.86589	92.6331
3.84867	92.646
3.8316	92.6953
3.81468	92.7666
3.79791	92.7549
3.78129	92.7783
3.76482	92.7683
3.74848	92.7451
3.73229	92.7488
3.71624	92.7131
3.70032	92.6519
3.68454	92.6604
3.6689	92.668
3.65338	92.6736
3.638	92.6672
3.62275	92.6301
3.60762	92.583
3.59262	92.655
3.57775	92.5808
3.56299	92.5613
3.54836	92.4971
3.53385	92.4963
3.51945	92.4832
3.50517	92.4241
3.49101	92.3799
3.47696	92.3059
3.46303	92.3359
3.4492	92.2747
3.43549	92.2395
3.42188	92.1814
3.40838	92.031
3.39499	92.1104
3.38171	92.2139
3.36852	92.2766
3.35544	92.1921
3.34246	92.2405
3.32958	92.2107
3.3168	92.1404
3.30411	92.1004
3.29153	92.0371
3.27903	92.0147
3.26664	92.0266
3.25433	92.0762
3.24212	92.0413
3.23	92.0156
3.21797	91.9092
3.20603	91.8594
3.19418	91.7783
3.18241	91.7031
3.17074	91.6096
3.15914	91.5059
3.14763	91.3821
3.13621	91.198
3.12487	91.0713
3.11361	90.9297
3.10243	90.7185
3.09133	90.3623
3.0803	90.1321
3.06936	89.99
3.0585	89.8425
3.04771	89.707
3.037	89.5713
3.02636	89.3582
3.0158	88.9551
3.00531	88.5379
2.99489	87.9954
2.98454	87.4368
2.97427	86.5593
2.96407	85.7473
2.95393	84.9632
2.94387	84.4021
2.93387	83.928
2.92394	83.5393
2.91408	83.4534
2.90429	83.3738
2.89456	83.5662
2.88489	83.7967
2.87529	83.9363
2.86576	84.2522
2.85628	84.5711
2.84687	84.9988
2.83752	85.4358
2.82823	86.0218
2.81901	86.5535
2.80984	86.9265
2.80073	87.2366
2.79168	87.7717
2.78269	88.1511
2.77376	88.4968
2.76488	88.9568
2.75606	89.5647
2.7473	89.9324
2.73859	90.0999
2.72994	90.0764
2.72134	89.8054
2.7128	89.699
2.70431	90.2405
2.69587	90.5828
2.68748	90.74
2.67915	90.8303
2.67087	90.8162
2.66264	90.6604
2.65446	90.6936
2.64633	90.6546
2.63825	90.5452
2.63021	90.5291
2.62223	90.5789
2.6143	90.5701
2.60641	90.5667
2.59857	90.4929
2.59078	90.4675
2.58304	90.5217
2.57534	90.4124
2.56768	90.3494
2.56008	90.3709
2.55251	90.2307
2.54499	90.1463
2.53752	90.2888
2.53009	90.3006
2.5227	89.947
2.51536	90.0003
2.50806	90.0506
2.5008	89.9592
2.49358	89.9607
2.4864	89.9763
2.47927	89.9109
2.47218	89.8269
2.46512	89.8152
2.45811	89.9197
2.45114	89.6804
2.4442	89.5935
2.43731	89.7048
2.43045	89.5027
2.42363	89.6297
2.41685	89.6834
2.41011	89.5545
2.40341	89.2586
2.39674	89.3064
2.39011	89.3963
2.38352	89.3123
2.37696	89.2791
2.37044	89.4646
2.36395	89.3884
2.35751	89.157
2.35109	89.2478
2.34471	89.1756
2.33836	89.0759
2.33205	88.9617
2.32578	89.0408
2.31953	89.1795
2.31332	89.0701
2.30714	88.8494
2.301	88.8963
2.29489	88.9256
2.28881	88.8513
2.28276	88.6922
2.27675	88.5857
2.27076	88.5359
2.26481	88.6648
2.25889	88.6892
2.253	88.6814
2.24714	88.8748
2.24131	88.5515
2.23551	88.4666
2.22974	88.7341
2.224	88.4031
2.21829	88.531
2.21261	88.4588
2.20696	88.6463
2.20134	88.5125
2.19574	88.3084
2.19018	88.242
2.18464	88.1209
2.17913	88.0935
2.17365	88.3523
2.16819	88.3133
2.16277	88.2966
2.15737	88.1052
2.15199	88.0115
2.14665	88.1297
2.14133	87.8943
2.13603	88.074
2.13077	88.2302
2.12552	88.1531
2.12031	88.0662
2.11512	87.9383
2.10995	87.864
2.10481	87.8826
2.0997	88.3123
2.09461	88.2498
2.08954	87.8006
2.0845	87.6482
2.07948	87.8865
