Name: Lance1
Type: Stony Meteorites
Class: Carbonaceous Chondrite
Subclass: CO
Particle Size: 0-75 micrometers
Sample No.: Lance1
Owner: JHU
Origin: Meteorite seen to fall in France in 1872.  Smithsonian sample No.
Description: None.
Measurement: Bidirectional reflectance
X Units: Wavelength (micrometers)
Y Units: Reflectance (percent)
wavelength	value
25.044	1.0085
24.339	1.1233
23.672	1.0232
23.041	1.0237
22.442	1.0183
21.874	0.9128
21.334	0.7952
20.82	0.8704
20.33	0.8601
19.863	0.9297
19.416	0.9705
18.99	0.9604
18.581	0.9539
18.19	0.9014
17.815	0.9272
17.455	0.9797
17.109	0.9551
16.777	0.9612
16.458	0.9487
16.15	0.9956
15.854	1.0305
15.568	1.0181
15.292	1.0095
15.027	1.0784
14.77	1.0854
14.521	1.1052
14.281	1.1965
14.049	1.2849
13.824	1.2471
13.607	1.3069
13.396	1.4758
13.191	1.6067
12.993	1.6877
12.8	1.6936
12.614	1.6194
12.432	1.4836
12.256	1.2913
12.084	1.0459
11.918	0.8826
11.755	0.8684
11.598	0.8804
11.444	0.9199
11.294	0.8957
11.149	0.875
11.007	0.8862
10.868	0.9236
10.733	0.9761
10.602	0.9863
10.473	0.9612
10.348	0.9121
10.225	0.8696
10.106	0.8289
9.9887	0.8362
9.8746	0.8633
9.763	0.8914
9.6539	0.9311
9.5472	1.0085
9.4429	1.0276
9.3408	1.0276
9.2409	1.0063
9.1431	1.0098
9.0474	1.0654
8.9536	1.1531
8.8618	1.2498
8.7718	1.3218
8.6837	1.3586
8.5973	1.5193
8.5126	1.5984
8.4295	1.6794
8.3481	1.7585
8.2682	1.8332
8.1898	1.8955
8.1129	1.947
8.0374	2.0039
7.9634	2.0415
7.8906	2.083
7.8192	2.1123
7.7491	2.1396
7.6802	2.1633
7.6126	2.1797
7.5461	2.1999
7.4807	2.2117
7.4165	2.2261
7.3534	2.2532
7.2914	2.2644
7.2303	2.2776
7.1703	2.2895
7.1113	2.3127
7.0533	2.3274
6.9962	2.3572
6.94	2.387
6.8847	2.3967
6.8302	2.4058
6.7767	2.4392
6.7239	2.4492
6.672	2.4319
6.6209	2.4246
6.5705	2.4287
6.5209	2.4175
6.4721	2.3916
6.424	2.3525
6.3766	2.3174
6.3299	2.2888
6.2838	2.2808
6.2385	2.2849
6.1937	2.2978
6.1496	2.3208
6.1062	2.3203
6.0633	2.2922
6.0211	2.2937
5.9794	2.3247
5.9383	2.3813
5.8978	2.417
5.8578	2.4429
5.8184	2.4585
5.7794	2.4648
5.741	2.446
5.7031	2.4194
5.6657	2.4043
5.6288	2.4087
5.5924	2.4416
5.5564	2.4797
5.5209	2.4902
5.4859	2.4927
5.4513	2.489
5.4171	2.5027
5.3833	2.5237
5.35	2.5364
5.3171	2.5461
5.2846	2.5425
5.2524	2.5535
5.2207	2.5466
5.1893	2.5391
5.1584	2.5268
5.1277	2.5295
5.0975	2.5398
5.0676	2.5491
5.038	2.5642
5.0088	2.5713
4.98	2.5759
4.9514	2.5789
4.9232	2.5832
4.8953	2.5884
4.8678	2.6047
4.8405	2.6116
4.8135	2.6118
4.7868	2.6196
4.7605	2.6301
4.7344	2.634
4.7086	2.636
4.6831	2.6387
4.6578	2.6426
4.6328	2.6431
4.6081	2.6516
4.5837	2.6601
4.5595	2.6636
4.5356	2.6733
4.5119	2.6724
4.4884	2.6699
4.4652	2.6765
4.4423	2.6755
4.4196	2.6763
4.3971	2.6738
4.3748	2.6736
4.3528	2.6704
4.331	2.6628
4.3094	2.655
4.288	2.6472
4.2668	2.6499
4.2458	2.6435
4.2251	2.6362
4.2045	2.6411
4.1841	2.6401
4.164	2.6289
4.144	2.6269
4.1242	2.6301
4.1046	2.6316
4.0852	2.6267
4.066	2.6272
4.047	2.6235
4.0281	2.6182
4.0094	2.6177
3.9909	2.6162
3.9725	2.6223
3.9544	2.6089
3.9363	2.6103
3.9185	2.6184
3.9008	2.6101
3.8833	2.6084
3.8659	2.603
3.8487	2.593
3.8316	2.5874
3.8147	2.5801
3.7979	2.5754
3.7813	2.5652
3.7648	2.5691
3.7485	2.5615
3.7323	2.5488
3.7162	2.5435
3.7003	2.5295
3.6845	2.5193
3.6689	2.5156
3.6534	2.5142
3.638	2.5073
3.6227	2.5012
3.6076	2.4924
3.5926	2.4861
3.5777	2.4819
3.563	2.4695
3.5484	2.4619
3.5338	2.4512
3.5195	2.4375
3.5052	2.4136
3.491	2.3987
3.477	2.4006
3.463	2.3928
3.4492	2.3762
3.4355	2.3608
3.4219	2.3325
3.4084	2.3357
3.395	2.3389
3.3817	2.3335
3.3685	2.3418
3.3554	2.3538
3.3425	2.3423
3.3296	2.3447
3.3168	2.3364
3.3041	2.3293
3.2915	2.3232
3.279	2.3191
3.2666	2.312
3.2543	2.2978
3.2421	2.2847
3.23	2.2808
3.218	2.2732
3.206	2.2629
3.1942	2.2549
3.1824	2.2397
3.1707	2.2324
3.1591	2.2292
3.1476	2.2187
3.1362	2.1985
3.1249	2.2007
3.1136	2.1999
3.1024	2.1794
3.0913	2.1726
3.0803	2.1704
3.0694	2.1641
3.0585	2.1689
3.0477	2.1489
3.037	2.1414
3.0264	2.1401
3.0158	2.1282
3.0053	2.1196
2.9949	2.1201
2.9845	2.1081
2.9743	2.104
2.9641	2.1045
2.9539	2.0915
2.9439	2.0942
2.9339	2.0908
2.9239	2.0854
2.9141	2.0854
2.9043	2.0908
2.8946	2.0896
2.8849	2.0998
2.8753	2.1113
2.8658	2.1064
2.8563	2.1169
2.8469	2.1223
2.8375	2.1335
2.8282	2.1448
2.819	2.1558
2.8098	2.1685
2.8007	2.1728
2.7917	2.1931
2.7827	2.1995
2.7738	2.2197
2.7649	2.2285
2.7561	2.2402
2.7473	2.2471
2.7386	2.2576
2.7299	2.2627
2.7213	2.2637
2.7128	2.2839
2.7043	2.283
2.6959	2.2866
2.6875	2.2864
2.6791	2.2888
2.6709	2.2871
2.6626	2.2788
2.6545	2.2947
2.6463	2.2944
2.6382	2.3066
2.6302	2.2856
2.6222	2.2842
2.6143	2.2891
2.6064	2.2786
2.5986	2.269
2.5908	2.2695
2.583	2.2695
2.5753	2.2717
2.5677	2.2541
2.5601	2.2693
2.5525	2.2598
2.545	2.2546
2.5375	2.2678
2.5301	2.2637
2.5227	2.2637
2.5154	2.2532
2.5081	2.2544
2.5008	2.2393
2.4936	2.2446
2.4864	2.2451
2.4793	2.2312
2.4722	2.25
2.4651	2.2537
2.4581	2.2361
2.4511	2.2331
2.4442	2.2353
2.4373	2.2419
2.4305	2.2312
2.4236	2.2283
2.4169	2.2434
2.4101	2.2424
2.4034	2.2414
2.3967	2.229
2.3901	2.2341
2.3835	2.2371
2.377	2.2356
2.3704	2.2439
2.364	2.2366
2.3575	2.2515
2.3511	2.2278
2.3447	2.2329
2.3384	2.248
2.3321	2.2468
2.3258	2.2444
2.3195	2.2427
2.3133	2.2283
2.3071	2.2202
2.301	2.231
2.2949	2.24
2.2888	2.2368
2.2828	2.2432
2.2767	2.2617
2.2708	2.2275
2.2648	2.2246
2.2589	2.2351
2.253	2.2502
2.2471	2.2439
2.2413	2.2559
2.2355	2.2529
2.2297	2.2429
2.224	2.2414
2.2183	2.2368
2.2126	2.2539
2.207	2.2585
2.2013	2.2529
2.1957	2.2568
2.1902	2.2707
2.1846	2.2737
2.1791	2.2671
2.1736	2.2712
2.1682	2.2595
2.1628	2.2803
2.1574	2.2681
2.152	2.2585
2.1466	2.2598
2.1413	2.272
2.136	2.2588
2.1308	2.2786
2.1255	2.2759
2.1203	2.2705
2.1151	2.2798
2.11	2.2888
2.1048	2.2622
2.0997	2.2983
2.0946	2.2612
2.0895	2.2781
2.0845	2.2739
2.0795	2.2947
