Name: Illite/smectite (K,H3O)(Al,Mg,Fe)2(Si,Al)4 O10 [(OH)2,H2O]
Type: Mineral
Class: Silicates
Subclass: Phyllosilicates (Sheet Silicates) (Mica Group)
Particle Size: 0-2 micrometers.  (Packed powder simulates coarse.)
Owner: JHU
Wavelength Range: IR
Origin: Cameron, Arizona; from Hunt and Salisbury Collection #31
Description: The sample was a light tan, earthy clay. Called
Measurement: Bidirectional reflectance
X Units: Wavelength (micrometers)
Y Units: Reflectance (percent)
wavelength	value
25.0442	11.0498
24.3388	11.5522
23.6719	11.9563
23.0407	11.6587
22.4422	11.6513
21.8741	12.3286
21.334	13.665
20.8199	14.4514
20.33	12.6728
19.8627	12.2646
19.4163	13.008
18.9896	14.2199
18.5812	15.3879
18.19	15.9719
17.815	15.7114
17.4551	14.8554
17.1094	13.6462
16.7772	11.6853
16.4576	9.4111
16.15	7.5366
15.8537	6.4971
15.568	5.865
15.2925	5.7134
15.0265	5.7712
14.7697	5.8992
14.5214	6.0056
14.2814	6.0139
14.0492	6.1023
13.8244	6.2571
13.6067	6.4463
13.3957	6.6289
13.1912	6.7485
12.9929	6.8418
12.8004	6.9411
12.6135	7.0166
12.432	7.01
12.2557	7.1174
12.0843	7.2024
11.9176	7.3203
11.7555	7.5115
11.5977	7.7256
11.444	7.8218
11.2944	7.8205
11.1487	7.9822
11.0067	8.1616
10.8682	8.1123
10.7332	8.0901
10.6015	8.1782
10.473	8.4399
10.3476	8.792
10.2251	9.2798
10.1056	9.8152
9.98873	10.4751
9.87458	11.1953
9.763	11.9724
9.65392	13.1411
9.54724	14.6748
9.44291	15.8569
9.34082	15.1264
9.24091	13.7028
9.14312	13.0708
9.04739	12.9448
8.95363	12.9399
8.8618	13.0822
8.77183	12.9101
8.68368	12.6967
8.59727	11.4179
8.51257	10.7444
8.42951	9.7395
8.34807	7.4194
8.26819	4.1548
8.18981	1.7541
8.11292	1.5269
8.03745	1.9722
7.96337	2.4475
7.89064	2.8716
7.81924	3.2383
7.74911	3.584
7.68023	3.8916
7.61256	4.1631
7.54608	4.3945
7.48074	4.6164
7.41653	4.7925
7.35341	4.9521
7.29136	5.0849
7.23034	5.2104
7.17033	5.3254
7.11132	5.3977
7.05327	5.4897
6.99616	5.5898
6.93996	5.7131
6.88467	5.8364
6.83024	5.9729
6.77667	6.1094
6.72393	6.1914
6.67201	6.2788
6.62089	6.3249
6.57054	6.3677
6.52095	6.3642
6.4721	6.3638
6.42398	6.3203
6.37657	6.2119
6.32986	6.0576
6.28382	5.8125
6.23845	5.4709
6.19373	5.094
6.14965	4.8088
6.10619	4.6555
6.06334	4.625
6.02109	4.699
5.97942	4.9263
5.93832	5.2446
5.89778	5.5788
5.8578	5.8845
5.81835	6.1472
5.77943	6.2964
5.74103	6.4446
5.70314	6.5649
5.66574	6.634
5.62883	6.6577
5.5924	6.6465
5.55644	6.6313
5.52093	6.6123
5.48588	6.594
5.45127	6.6357
5.41709	6.7073
5.38334	6.7431
5.35	6.8147
5.31708	6.9065
5.28456	7.0107
5.25243	7.0976
5.2207	7.1931
5.18934	7.2539
5.15836	7.341
5.12775	7.4326
5.09749	7.54
5.0676	7.6296
5.03805	7.7243
5.00884	7.8017
4.97998	7.8952
4.95144	7.9775
4.92322	8.0251
4.89533	8.0827
4.86775	8.1252
4.84048	8.1701
4.81351	8.1911
4.78684	8.2168
4.76047	8.2375
4.73439	8.2617
4.70859	8.2778
4.68306	8.3125
4.65782	8.353
4.63284	8.3911
4.60814	8.4338
4.58369	8.4704
4.5595	8.5105
4.53557	8.5437
4.51188	8.5747
4.48845	8.6145
4.46525	8.6509
4.44229	8.6936
4.41957	8.7534
4.39708	8.8105
4.37481	8.8611
4.35277	8.9104
4.33096	8.9477
4.30935	8.999
4.28797	9.0522
4.26679	9.0998
4.24583	9.1684
4.22506	9.2258
4.2045	9.2695
4.18414	9.3188
4.16398	9.373
4.14401	9.4297
4.12423	9.4809
4.10464	9.5198
4.08523	9.572
4.066	9.6242
4.04696	9.6614
4.02809	9.6804
4.0094	9.7097
3.99088	9.7292
3.97253	9.7414
3.95435	9.738
3.93634	9.7341
3.91848	9.7319
3.90079	9.7199
3.88326	9.675
3.86589	9.6355
3.84867	9.5913
3.8316	9.5364
3.81468	9.4758
3.79791	9.4206
3.78129	9.3496
3.76482	9.2719
3.74848	9.1963
3.73229	9.1113
3.71624	9.0268
3.70032	8.9101
3.68454	8.8188
3.6689	8.7434
3.65338	8.6553
3.638	8.5715
3.62275	8.4819
3.60762	8.3808
3.59262	8.2807
3.57775	8.1535
3.56299	8.0315
3.54836	7.9138
3.53385	7.7663
3.51945	7.6003
3.50517	7.3855
3.49101	7.3647
3.47696	7.2585
3.46303	7.1448
3.4492	7.0014
3.43549	6.8474
3.42188	6.6279
3.40838	6.5368
3.39499	6.4819
3.38171	6.3769
3.36852	6.2805
3.35544	6.1802
3.34246	6.0705
3.32958	5.9543
3.3168	5.8279
3.30411	5.7136
3.29153	5.6196
3.27903	5.509
3.26664	5.4018
3.25433	5.2876
3.24212	5.1938
3.23	5.0854
3.21797	4.9912
3.20603	4.9006
3.19418	4.8091
3.18241	4.7107
3.17074	4.6291
3.15914	4.5405
3.14763	4.468
3.13621	4.395
3.12487	4.3306
3.11361	4.2554
3.10243	4.2053
3.09133	4.1601
3.0803	4.1372
3.06936	4.0874
3.0585	4.0796
3.04771	4.0664
3.037	4.0444
3.02636	4.0344
3.0158	3.9966
3.00531	3.9595
2.99489	3.9326
2.98454	3.8953
2.97427	3.852
2.96407	3.8374
2.95393	3.7932
2.94387	3.7717
2.93387	3.7524
2.92394	3.7488
2.91408	3.7373
2.90429	3.7236
2.89456	3.7219
2.88489	3.7197
2.87529	3.7207
2.86576	3.7312
2.85628	3.74
2.84687	3.7395
2.83752	3.7082
2.82823	3.7021
2.81901	3.6809
2.80984	3.6316
2.80073	3.5664
2.79168	3.5183
2.78269	3.4648
2.77376	3.3816
2.76488	3.3479
2.75606	3.2766
2.7473	3.209
2.73859	3.271
2.72994	3.3225
2.72134	3.499
2.7128	3.7725
2.70431	4.0588
2.69587	4.6594
2.68748	5.3904
2.67915	5.9568
2.67087	6.3
2.66264	6.5408
2.65446	6.6938
2.64633	6.8291
2.63825	6.9282
2.63021	7.0332
2.62223	7.0647
2.6143	7.1328
2.60641	7.199
2.59857	7.228
2.59078	7.2563
2.58304	7.3371
2.57534	7.3025
2.56768	7.3186
2.56008	7.384
2.55251	7.3628
2.54499	7.3948
2.53752	7.4223
2.53009	7.4253
2.5227	7.4321
2.51536	7.4482
2.50806	7.4751
2.5008	7.49
2.49358	7.5246
2.4864	7.551
2.47927	7.5774
2.47218	7.5647
2.46512	7.646
2.45811	7.646
2.45114	7.6758
2.4442	7.7065
2.43731	7.7473
2.43045	7.7949
2.42363	7.8662
2.41685	7.9475
2.41011	8.0561
2.40341	8.0547
2.39674	8.083
2.39011	8.0874
2.38352	8.104
2.37696	8.1372
2.37044	8.1391
2.36395	8.1679
2.35751	8.2285
2.35109	8.2536
2.34471	8.2842
2.33836	8.3413
2.33205	8.4692
2.32578	8.5962
2.31953	8.643
2.31332	8.7558
2.30714	8.812
2.301	8.7961
2.29489	8.8696
2.28881	8.8642
2.28276	8.9004
2.27675	8.8877
2.27076	8.9009
2.26481	8.8169
2.25889	8.6645
2.253	8.6396
2.24714	8.539
2.24131	8.5097
2.23551	8.5036
2.22974	8.4182
2.224	8.3476
2.21829	8.3708
2.21261	8.3354
2.20696	8.3266
2.20134	8.3967
2.19574	8.4956
2.19018	8.677
2.18464	8.7495
2.17913	8.8384
2.17365	8.9787
2.16819	9.0608
2.16277	9.1694
2.15737	9.303
2.15199	9.3115
2.14665	9.3325
2.14133	9.3618
2.13603	9.4609
2.13077	9.4519
2.12552	9.4221
2.12031	9.4465
2.11512	9.497
2.10995	9.426
2.10481	9.4682
2.0997	9.4468
2.09461	9.4331
2.08954	9.499
2.0845	9.5031
2.07948	9.478
