Name: Anhydrite CaSO4
Type: Mineral
Class: Sulfates
Particle Size: Coarse (75-250 Micrometers)
Sample No.: anhydrite.1
Owner: JHU
Wavelength Range: IR
Origin: Sample from Champo, Isere, France, via the Smithsonian
Description: The sample was a 3 cm x 3 cm x 4 cm, white, granular
Measurement: Bidirectional reflectance
X Units: Wavelength (micrometers)
Y Units: Reflectance (percent)
wavelength	value
25.044	0.4619
24.339	0.2222
23.672	0.4612
23.041	0.4619
22.442	0.6809
21.874	0.5942
21.334	0.7009
20.82	0.6135
20.33	0.6716
19.863	0.634
19.416	0.5701
18.99	0.9353
18.581	1.0742
18.19	1.1287
17.815	1.093
17.455	0.968
17.109	0.852
16.777	1.3508
16.458	0.9556
16.15	0.9839
15.854	0.5571
15.568	0.4521
15.292	0.5041
15.027	0.6067
14.77	1.0271
14.521	1.1584
14.281	0.8835
14.049	0.3567
13.824	0.4849
13.607	0.4785
13.396	0.4675
13.191	0.5928
12.993	0.6521
12.8	0.791
12.614	0.9377
12.432	0.9243
12.256	0.8833
12.084	0.7624
11.918	0.7261
11.755	0.7078
11.598	0.7715
11.444	0.7227
11.294	0.646
11.149	0.5891
11.007	0.5996
10.868	0.6482
10.733	0.6641
10.602	0.6287
10.473	0.595
10.348	0.5659
10.225	0.5559
10.106	0.5535
9.989	0.5171
9.875	0.5093
9.763	0.5432
9.654	0.5601
9.547	0.6113
9.443	0.6433
9.341	0.7109
9.241	0.7761
9.143	1.0117
9.047	1.3254
8.954	1.5832
8.862	1.9424
8.772	2.3118
8.684	2.9973
8.597	3.0852
8.513	3.0867
8.43	3.1235
8.348	3.2961
8.268	2.8755
8.19	2.3074
8.113	2.1643
8.037	1.8276
7.963	1.376
7.891	0.7722
7.819	0.3164
7.749	0.1013
7.68	0.0732
7.613	0.1213
7.546	0.1533
7.481	0.1895
7.417	0.2302
7.353	0.2798
7.291	0.3191
7.23	0.3867
7.17	0.4431
7.111	0.5222
7.053	0.5901
6.996	0.7148
6.94	0.9172
6.885	1.1606
6.83	1.4763
6.777	1.6709
6.724	1.8679
6.672	2.1299
6.621	2.2793
6.571	1.8284
6.521	1.2622
6.472	0.9941
6.424	1.3035
6.377	1.6191
6.33	1.647
6.284	1.9175
6.238	1.4377
6.194	0.7336
6.15	0.478
6.106	0.7612
6.063	1.2705
6.021	1.4702
5.979	1.6626
5.938	1.6667
5.898	1.5019
5.858	2.3232
5.818	2.5752
5.779	2.1377
5.741	2.5176
5.703	2.6213
5.666	3.115
5.629	3.323
5.592	3.1091
5.556	2.9954
5.521	3.1064
5.486	3.314
5.451	3.4446
5.417	3.8098
5.383	4.1531
5.35	4.3118
5.317	4.3708
5.285	4.416
5.252	4.4538
5.221	4.5671
5.189	4.6843
5.158	4.7161
5.128	4.666
5.097	4.508
5.068	4.3972
5.038	4.3367
5.009	4.1853
4.98	4.0891
4.951	3.8318
4.923	2.8462
4.895	3.7344
4.868	3.6719
4.84	3.4731
4.814	3.1631
4.787	2.6685
4.76	1.9126
4.734	0.9673
4.709	0.3186
4.683	0.2632
4.658	0.2822
4.633	0.3574
4.608	0.3809
4.584	0.5002
4.56	0.5503
4.536	0.4812
4.512	0.4399
4.488	0.3887
4.465	0.3533
4.442	0.3828
4.42	0.491
4.397	0.5942
4.375	0.5474
4.353	0.5273
4.331	0.6265
4.309	0.686
4.288	0.6587
4.267	0.7419
4.246	1.156
4.225	1.4412
4.205	1.356
4.184	1.5803
4.164	2.53
4.144	3.2778
4.124	3.6121
4.105	3.8603
4.085	4.0859
4.066	4.2925
4.047	4.4604
4.028	4.6006
4.009	4.7529
3.991	4.8696
3.973	4.9512
3.954	5.0295
3.936	5.0683
3.918	5.0981
3.901	5.2344
3.883	5.4043
3.866	5.5139
3.849	5.6194
3.832	5.656
3.815	5.584
3.798	5.31
3.781	5.4499
3.765	5.7251
3.748	5.866
3.732	5.9375
3.716	5.9768
3.7	5.8987
3.685	5.8823
3.669	5.948
3.653	5.8801
3.638	5.8618
3.623	5.8962
3.608	5.9326
3.593	5.9473
3.578	5.9336
3.563	5.876
3.548	5.8345
3.534	5.7861
3.519	5.7224
3.505	5.6467
3.491	5.5864
3.477	5.5356
3.463	5.5132
3.449	5.4639
3.435	5.4192
3.422	5.364
3.408	5.3347
3.395	5.3081
3.382	5.2771
3.369	5.2153
3.355	5.1589
3.342	5.093
3.33	5.0141
3.317	4.9226
3.304	4.8223
3.292	4.7275
3.279	4.6133
3.267	4.5137
3.254	4.4487
3.242	4.3308
3.23	4.2078
3.218	4.0581
3.206	3.8979
3.194	3.6206
3.182	3.2905
3.171	3.2761
3.159	3.2236
3.148	3.1367
3.136	3.02
3.125	2.9192
3.114	2.8154
3.102	2.6616
3.091	2.4656
3.08	2.3452
3.069	2.3464
3.058	2.3313
3.048	2.2844
3.037	2.2537
3.026	2.1873
3.016	2.1252
3.005	2.0359
2.995	1.9868
2.985	1.9331
2.974	1.8767
2.964	1.7622
2.954	1.6606
2.944	1.5813
2.934	1.5776
2.924	1.6094
2.914	1.658
2.904	1.6702
2.895	1.6758
2.885	1.6885
2.875	1.6611
2.866	1.6299
2.856	1.6658
2.847	1.7268
2.838	1.729
2.828	1.7578
2.819	1.7529
2.81	1.8254
2.801	1.9617
2.792	2.0869
2.783	2.2583
2.774	2.4392
2.765	2.6414
2.756	2.9624
2.747	3.3735
2.739	3.72
2.73	4.0681
2.721	4.3359
2.713	4.6565
2.704	4.9133
2.696	5.1208
2.687	5.2905
2.679	5.3821
2.671	5.4951
2.663	5.6194
2.654	5.6782
2.646	5.7561
2.638	5.7883
2.63	5.7949
2.622	5.8396
2.614	5.8911
2.606	5.8425
2.599	5.8999
2.591	5.8874
2.583	5.8823
2.575	5.8901
2.568	5.9326
2.56	5.917
2.553	5.9399
2.545	5.9673
2.538	5.9614
2.53	5.9653
2.523	5.938
2.515	5.9382
2.508	5.9285
2.501	5.9263
2.494	5.928
2.486	5.9043
2.479	5.9106
2.472	5.9172
2.465	5.9338
2.458	5.9663
2.451	5.98
2.444	5.99
2.437	5.9963
2.43	6.0115
2.424	6.029
2.417	6.0361
2.41	6.103
2.403	6.1208
2.397	6.1853
2.39	6.2495
2.384	6.3127
2.377	6.3515
2.37	6.3674
2.364	6.3887
2.358	6.4223
2.351	6.4248
2.345	6.4463
2.338	6.4253
2.332	6.436
2.326	6.4619
2.32	6.4377
2.313	6.4687
2.307	6.4067
2.301	6.4258
2.295	6.4429
2.289	6.416
2.283	6.4314
2.277	6.376
2.271	6.3594
2.265	6.3476
2.259	6.4065
2.253	6.3769
2.247	6.3581
2.241	6.3769
2.236	6.3647
2.23	6.376
2.224	6.3266
2.218	6.3359
2.213	6.3398
2.207	6.3559
2.201	6.3452
2.196	6.3418
2.19	6.3733
2.185	6.3589
2.179	6.341
2.174	6.3872
2.168	6.3645
2.163	6.3979
2.157	6.4072
2.152	6.4028
2.147	6.3955
2.141	6.3569
2.136	6.3867
2.131	6.4111
2.126	6.3931
2.12	6.3633
2.115	6.3838
2.11	6.4297
2.105	6.4062
2.1	6.426
2.095	6.4341
2.09	6.4548
2.085	6.4609
2.079	6.4404
