Name: Olivine (Fo51) (Fe+2,Mg)2SiO4
Type: Mineral
Class: Silicates
Subclass: Nesosilicates (Isolated tetrahedra); (Olivine Group)
Particle Size: Fine  (Less than 2 Micrometers)
Sample No.: olivine.5
Owner: JHU
Wavelength Range: IR
Origin: Kiglapait Intrusion, Labrador via Trude King #KI3188
Description: Initially, the specimen was contaminated with pyroxene,
Measurement: Transmission
X Units: Wavelength (micrometers)
Y Units: Transmittance (percent)
wavelength	value
25.0442	22.8437
24.3388	31.1405
23.6719	35.9257
23.0407	41.4999
22.4422	44.5018
21.8741	44.7069
21.334	37.5585
20.8199	22.6288
20.33	19.9355
19.8627	21.6992
19.4163	21.5078
18.9896	23.746
18.5812	33.7987
18.19	46.9061
17.815	51.7772
17.4551	40.7128
17.1094	33.8847
16.7772	40.6962
16.4576	54.6219
16.15	69.2156
15.8537	78.2342
15.568	82.6599
15.2925	85.4773
15.0265	87.2547
14.7697	87.8396
14.5214	87.948
14.2814	87.5896
14.0492	86.9021
13.8244	85.3787
13.6067	83.6682
13.3957	80.9788
13.1912	77.555
12.9929	73.3318
12.8004	67.8748
12.6135	60.9803
12.432	51.8675
12.2557	39.7597
12.0843	24.4286
11.9176	24.039
11.7555	18.75
11.5977	10.957
11.444	5.3389
11.2944	4.8403
11.1487	6.9731
11.0067	9.3838
10.8682	12.5464
10.7332	13.8359
10.6015	21.8305
10.473	16.3925
10.3476	12.895
10.2251	14.5097
10.1056	17.854
9.98873	24.6918
9.87458	34.3095
9.763	44.1395
9.65392	52.5658
9.54724	59.492
9.44291	64.659
9.34082	68.6014
9.24091	71.8631
9.14312	74.7586
9.04739	77.658
8.95363	79.8909
8.8618	82.076
8.77183	83.864
8.68368	85.3928
8.59727	86.8975
8.51257	88.5498
8.42951	89.9441
8.34807	91.2109
8.26819	92.374
8.18981	93.335
8.11292	94.1211
8.03745	94.6648
7.96337	95.0994
7.89064	95.3044
7.81924	95.5554
7.74911	95.8171
7.68023	95.9924
7.61256	96.2043
7.54608	96.4939
7.48074	96.8523
7.41653	97.0798
7.35341	97.1689
7.29136	97.3616
7.23034	97.4861
7.17033	97.1921
7.11132	97.3164
7.05327	97.3889
6.99616	97.4785
6.93996	97.595
6.88467	97.5469
6.83024	97.5762
6.77667	97.4004
6.72393	97.4746
6.67201	97.3142
6.62089	97.2019
6.57054	97.0037
6.52095	96.9968
6.4721	96.7004
6.42398	96.3308
6.37657	96.3018
6.32986	95.915
6.28382	95.6826
6.23845	95.3894
6.19373	95.0447
6.14965	94.6221
6.10619	94.2432
6.06334	93.9519
6.02109	94.1465
5.97942	94.2444
5.93832	94.1104
5.89778	94.238
5.8578	94.3445
5.81835	93.9482
5.77943	93.8213
5.74103	93.4236
5.70314	93.0442
5.66574	93.0068
5.62883	92.9834
5.5924	93.1514
5.55644	92.8567
5.52093	92.8049
5.48588	92.7051
5.45127	92.6795
5.41709	92.5027
5.38334	92.4949
5.35	92.2976
5.31708	92.2127
5.28456	92.167
5.25243	92.0234
5.2207	91.9492
5.18934	91.822
5.15836	91.6716
5.12775	91.4902
5.09749	91.2813
5.0676	91.1365
5.03805	90.9871
5.00884	90.918
4.97998	90.8045
4.95144	90.7146
4.92322	90.5762
4.89533	90.3816
4.86775	90.2976
4.84048	90.0315
4.81351	89.8445
4.78684	89.7029
4.76047	89.4983
4.73439	89.3069
4.70859	89.0911
4.68306	88.9588
4.65782	88.7263
4.63284	88.5696
4.60814	88.3035
4.58369	88.1057
4.5595	87.9646
4.53557	87.7215
4.51188	87.5315
4.48845	87.3548
4.46525	87.0882
4.44229	86.9138
4.41957	86.7176
4.39708	86.5701
4.37481	86.2913
4.35277	86.0828
4.33096	85.9168
4.30935	85.7185
4.28797	85.5115
4.26679	85.3465
4.24583	85.1492
4.22506	84.9441
4.2045	84.7488
4.18414	84.5413
4.16398	84.3416
4.14401	84.1346
4.12423	83.9549
4.10464	83.7351
4.08523	83.5808
4.066	83.2986
4.04696	83.114
4.02809	82.8826
4.0094	82.7097
3.99088	82.471
3.97253	82.2112
3.95435	82.0877
3.93634	81.8269
3.91848	81.6053
3.90079	81.3875
3.88326	81.1761
3.86589	80.9422
3.84867	80.7273
3.8316	80.531
3.81468	80.3553
3.79791	80.0418
3.78129	79.8592
3.76482	79.6805
3.74848	79.4129
3.73229	79.2303
3.71624	78.8948
3.70032	78.8113
3.68454	78.4939
3.6689	78.4163
3.65338	78.0101
3.638	77.9764
3.62275	77.5633
3.60762	77.4441
3.59262	77.2015
3.57775	76.9578
3.56299	76.7366
3.54836	76.5062
3.53385	76.285
3.51945	76.1565
3.50517	76.1629
3.49101	75.7889
3.47696	75.5418
3.46303	75.3377
3.4492	75.1214
3.43549	75.0848
3.42188	74.9881
3.40838	74.6522
3.39499	74.2796
3.38171	73.9354
3.36852	73.5916
3.35544	73.3577
3.34246	73.0569
3.32958	72.6619
3.3168	72.5818
3.30411	72.3304
3.29153	72.1331
3.27903	71.8323
3.26664	71.639
3.25433	71.4476
3.24212	71.158
3.23	70.8289
3.21797	70.6092
3.20603	70.3475
3.19418	70.1317
3.18241	69.8504
3.17074	69.6942
3.15914	69.3338
3.14763	69.2449
3.13621	68.9881
3.12487	68.7049
3.11361	68.4637
3.10243	68.3162
3.09133	68.0155
3.0803	67.908
3.06936	67.6893
3.0585	67.408
3.04771	67.1971
3.037	67.0506
3.02636	66.7625
3.0158	66.5496
3.00531	66.411
2.99489	66.0877
2.98454	65.9071
2.97427	65.6805
2.96407	65.3944
2.95393	65.2323
2.94387	65.1092
2.93387	64.8416
2.92394	64.6698
2.91408	64.5057
2.90429	64.3807
2.89456	64.283
2.88489	64.1883
2.87529	64.0018
2.86576	63.9061
2.85628	63.8866
2.84687	63.7049
2.83752	63.6366
2.82823	63.4569
2.81901	63.5623
2.80984	63.3241
2.80073	63.1053
2.79168	63.2
2.78269	63.118
2.77376	62.9735
2.76488	62.9647
2.75606	62.7791
2.7473	62.9803
2.73859	62.6453
2.72994	62.7547
2.72134	62.5428
2.7128	62.6385
2.70431	62.45
2.69587	62.5399
2.68748	62.1336
2.67915	62.1717
2.67087	61.825
2.66264	61.6219
2.65446	61.5047
2.64633	61.5077
2.63825	61.3368
2.63021	60.912
2.62223	61.1229
2.6143	60.6717
2.60641	60.5194
2.59857	60.535
2.59078	60.3163
2.58304	60.0741
2.57534	59.9627
2.56768	59.9803
2.56008	59.7264
2.55251	59.5584
2.54499	59.4178
2.53752	59.1483
2.53009	59.119
2.5227	58.9413
2.51536	58.7362
2.50806	58.6561
2.5008	58.492
2.49358	58.5584
2.4864	58.2108
2.47927	58.0155
2.47218	57.9256
2.46512	57.7596
2.45811	57.6131
2.45114	57.2752
2.4442	57.3436
2.43731	57.1112
2.43045	56.9237
2.42363	56.9178
2.41685	56.6327
2.41011	56.6112
2.40341	56.5624
2.39674	56.1581
2.39011	56.078
2.38352	56.0721
2.37696	55.8983
2.37044	55.6483
2.36395	55.6874
2.35751	55.6659
2.35109	55.2186
2.34471	55.1581
2.33836	54.9374
2.33205	54.7264
2.32578	54.8592
2.31953	54.4452
2.31332	54.6249
2.30714	54.3983
2.301	54.0018
2.29489	53.8143
2.28881	53.9315
2.28276	53.742
2.27675	53.5721
2.27076	53.5467
2.26481	53.0467
2.25889	53.121
2.253	53.1796
2.24714	53.0155
2.24131	52.6796
2.23551	52.8006
2.22974	52.578
2.224	52.2577
2.21829	52.41
2.21261	52.1092
2.20696	51.9608
2.20134	51.9686
2.19574	51.953
2.19018	51.4686
2.18464	51.4335
2.17913	51.1991
2.17365	51.2382
2.16819	51.3475
2.16277	50.5975
2.15737	50.6796
2.15199	50.4921
2.14665	50.2655
2.14133	50.3319
2.13603	50.2499
2.13077	50.121
2.12552	49.6405
2.12031	49.8671
2.11512	49.8632
2.10995	49.8827
2.10481	49.2421
2.0997	49.6327
2.09461	49.2108
2.08954	48.8436
2.0845	48.9374
2.07948	49.1405
