Name: Anorthite CaAl2Si2O8
Type: Mineral (Synthetic)
Class: Silicates
Subclass: Tectosilicates (Framework silicates) (Feldspar Group)
Particle Size: Fine (less than 75 Micrometers)
Sample No.: anorthite.1
Owner: JHU
Wavelength Range: IR
Origin: Sample from Bruce Hemingway, USGS; synthesized by James
Description: The sample was a coarse white powder.  The sample
Measurement: Bidirectional reflectance
X Units: Wavelength (micrometers)
Y Units: Reflectance (percent)
wavelength	value
25.044	1.9766
24.339	1.9868
23.672	1.8872
23.041	1.7353
22.442	1.9209
21.874	1.8957
21.334	1.9346
20.82	1.9731
20.33	2.063
19.863	2.3442
19.416	2.2041
18.99	2.186
18.581	2.1528
18.19	1.9492
17.815	2.0281
17.455	1.9656
17.109	2.0068
16.777	1.9307
16.458	1.7637
16.15	1.8208
15.854	1.8787
15.568	1.739
15.292	1.5444
15.027	1.3762
14.77	1.2773
14.521	1.2947
14.281	1.3665
14.049	1.4832
13.824	1.4697
13.607	1.3572
13.396	1.4131
13.191	1.3525
12.993	1.3977
12.8	1.7263
12.614	2.2463
12.432	2.4678
12.256	2.3113
12.084	2.0383
11.918	1.9028
11.755	1.8181
11.598	1.8337
11.444	1.8926
11.294	1.8943
11.149	1.9702
11.007	2.0193
10.868	2.1435
10.733	2.1987
10.602	2.2229
10.473	2.2048
10.348	2.0771
10.225	1.7505
10.106	1.5974
9.989	1.4861
9.875	1.4556
9.763	1.5207
9.654	1.4883
9.547	1.3752
9.443	1.2312
9.341	1.167
9.241	1.1589
9.143	1.1997
9.047	1.281
8.954	1.3379
8.862	1.3618
8.772	1.4587
8.684	1.6487
8.597	1.8015
8.513	1.9048
8.43	1.957
8.348	1.761
8.268	1.2458
8.19	0.606
8.113	0.4233
8.037	0.616
7.963	1.001
7.891	1.51
7.819	2.0496
7.749	2.5408
7.68	2.9885
7.613	3.4131
7.546	3.781
7.481	4.1201
7.417	4.4231
7.353	4.7241
7.291	4.9787
7.23	5.2131
7.17	5.426
7.111	5.623
7.053	5.8083
6.996	5.9724
6.94	6.0947
6.885	6.1848
6.83	6.259
6.777	6.3642
6.724	6.4385
6.672	6.4748
6.621	6.5198
6.571	6.5803
6.521	6.6562
6.472	6.7239
6.424	6.7661
6.377	6.7287
6.33	6.6709
6.284	6.6733
6.238	6.6882
6.194	6.7097
6.15	6.758
6.106	6.8169
6.063	6.8659
6.021	6.9641
5.979	7.1733
5.938	7.4651
5.898	7.802
5.858	8.144
5.818	8.4616
5.779	8.7878
5.741	9.0952
5.703	9.3474
5.666	9.5554
5.629	9.7368
5.592	9.8288
5.556	9.803
5.521	9.7419
5.486	9.6865
5.451	9.6831
5.417	9.7666
5.383	9.9729
5.35	10.2068
5.317	10.4165
5.285	10.6372
5.252	10.8938
5.221	11.1491
5.189	11.4345
5.158	11.7263
5.128	12.0324
5.097	12.3081
5.068	12.5271
5.038	12.7575
5.009	13.0173
4.98	13.2707
4.951	13.5144
4.923	13.7534
4.895	13.9992
4.868	14.2341
4.84	14.4445
4.814	14.6281
4.787	14.8017
4.76	14.9589
4.734	15.1193
4.709	15.3117
4.683	15.5234
4.658	15.749
4.633	16.0161
4.608	16.3178
4.584	16.5927
4.56	16.8457
4.536	17.0627
4.512	17.239
4.488	17.3894
4.465	17.4838
4.442	17.541
4.42	17.5905
4.397	17.6543
4.375	17.7607
4.353	17.8981
4.331	18.0876
4.309	18.3059
4.288	18.5427
4.267	18.7797
4.246	18.9616
4.225	19.0927
4.205	19.2219
4.184	19.3056
4.164	19.3779
4.144	19.4174
4.124	19.4736
4.105	19.5158
4.085	19.5676
4.066	19.6157
4.047	19.6547
4.028	19.6877
4.009	19.7121
3.991	19.7297
3.973	19.7612
3.954	19.8049
3.936	19.8376
3.918	19.883
3.901	19.9184
3.883	19.927
3.866	19.934
3.849	19.9384
3.832	19.9572
3.815	19.9604
3.798	19.9841
3.781	19.9914
3.765	19.9956
3.748	19.9797
3.732	19.9741
3.716	19.9589
3.7	19.9272
3.685	19.8933
3.669	19.8884
3.653	19.8857
3.638	19.8674
3.623	19.8388
3.608	19.8195
3.593	19.7961
3.578	19.7636
3.563	19.7265
3.548	19.6799
3.534	19.6318
3.519	19.5461
3.505	19.2915
3.491	19.3171
3.477	19.3249
3.463	19.3208
3.449	19.2607
3.435	19.1433
3.422	18.8881
3.408	18.8825
3.395	19.0683
3.382	19.0666
3.369	19.0832
3.355	19.2053
3.342	19.228
3.33	19.2253
3.317	19.2023
3.304	19.1755
3.292	19.1367
3.279	19.0854
3.267	19.0275
3.254	18.9799
3.242	18.9406
3.23	18.8862
3.218	18.8247
3.206	18.78
3.194	18.7253
3.182	18.6564
3.171	18.6098
3.159	18.5476
3.148	18.5041
3.136	18.4279
3.125	18.3725
3.114	18.3579
3.102	18.3081
3.091	18.2683
3.08	18.2558
3.069	18.228
3.058	18.1945
3.048	18.1762
3.037	18.1538
3.026	18.1169
3.016	18.0639
3.005	18.0043
2.995	17.9873
2.985	17.9699
2.974	17.9257
2.964	17.9409
2.954	17.9628
2.944	17.9621
2.934	17.9785
2.924	17.9658
2.914	17.9277
2.904	17.9318
2.895	17.9145
2.885	17.8881
2.875	17.8618
2.866	17.9101
2.856	18.0168
2.847	18.1914
2.838	18.4121
2.828	18.5678
2.819	18.6035
2.81	18.5893
2.801	18.6064
2.792	18.6772
2.783	18.79
2.774	19.0903
2.765	19.4868
2.756	19.7832
2.747	20.0175
2.739	20.1464
2.73	20.1196
2.721	17.8291
2.713	20.6332
2.704	21.1259
2.696	21.4526
2.687	21.6704
2.679	21.8051
2.671	21.9125
2.663	22.0534
2.654	22.048
2.646	22.0756
2.638	22.1259
2.63	22.1022
2.622	22.1398
2.614	22.1384
2.606	22.1369
2.599	22.165
2.591	22.1987
2.583	22.2026
2.575	22.1948
2.568	22.2263
2.56	22.1977
2.553	22.2119
2.545	22.2248
2.538	22.2368
2.53	22.2253
2.523	22.2023
2.515	22.2416
2.508	22.2475
2.501	22.259
2.494	22.2343
2.486	22.2748
2.479	22.2817
2.472	22.2824
2.465	22.2612
2.458	22.2729
2.451	22.2939
2.444	22.2482
2.437	22.2451
2.43	22.2678
2.424	22.2724
2.417	22.3085
2.41	22.3056
2.403	22.2861
2.397	22.2431
2.39	22.2424
2.384	22.2973
2.377	22.2892
2.37	22.3076
2.364	22.3349
2.358	22.2582
2.351	22.3281
2.345	22.2997
2.338	22.2639
2.332	22.2412
2.326	22.2414
2.32	22.298
2.313	22.2968
2.307	22.2397
2.301	22.2963
2.295	22.2768
2.289	22.3276
2.283	22.2841
2.277	22.3032
2.271	22.2553
2.265	22.2841
2.259	22.2968
2.253	22.3095
2.247	22.3061
2.241	22.311
2.236	22.3188
2.23	22.3149
2.224	22.2871
2.218	22.3359
2.213	22.3286
2.207	22.3115
2.201	22.331
2.196	22.329
2.19	22.3515
2.185	22.2997
2.179	22.3076
2.174	22.3466
2.168	22.3349
2.163	22.4033
2.157	22.3935
2.152	22.4106
2.147	22.4638
2.141	22.4482
2.136	22.4365
2.131	22.5414
2.126	22.5038
2.12	22.5537
2.115	22.5375
2.11	22.5351
2.105	22.5068
2.1	22.6288
2.095	22.6718
2.09	22.6669
2.085	22.6664
2.079	22.5996
