Name: Hematite a-Fe2O3
Type: Mineral
Class: Oxides
Subclass: (Hematite Group)
Particle Size: Solid (sawn surface)
Sample No.: hematite.1
Owner: JHU
Wavelength Range: IR
Origin: Frizington, Cumberland, England via the Smithsonian (sample
Description: The sample was a 2.5 cm x 2.5 cm x 1 cm sawn plate,
Measurement: Bidirectional reflectance
X Units: Wavelength (micrometers)
Y Units: Reflectance (percent)
wavelength	value
25.044	15.6162
24.339	15.9836
23.672	19.8198
23.041	25.5939
22.442	27.5336
21.874	27.9816
21.334	28.2353
20.82	26.6471
20.33	18.9614
19.863	14.7431
19.416	21.2558
18.99	27.6662
18.581	31.3698
18.19	33.0263
17.815	33.4767
17.455	33.0795
17.109	32.0119
16.777	31.1703
16.458	30.1186
16.15	28.6762
15.854	26.7477
15.568	24.905
15.292	21.4768
15.027	14.6325
14.77	7.3286
14.521	3.4028
14.281	2.6208
14.049	2.6948
13.824	3.081
13.607	3.5576
13.396	4.1172
13.191	4.5586
12.993	4.9912
12.8	5.292
12.614	5.5549
12.432	5.8022
12.256	6.0329
12.084	6.2339
11.918	6.3899
11.755	6.5041
11.598	6.6152
11.444	6.7114
11.294	6.9033
11.149	7.104
11.007	6.9846
10.868	7.0188
10.733	7.1164
10.602	7.2038
10.473	7.2456
10.348	7.2632
10.225	7.302
10.106	7.3423
9.989	7.3957
9.875	7.4013
9.763	7.4138
9.654	7.4009
9.547	7.4177
9.443	7.4316
9.341	7.4324
9.241	7.4624
9.143	7.4961
9.047	7.5605
8.954	7.6223
8.862	7.666
8.772	7.6833
8.684	7.7104
8.597	7.7717
8.513	7.8286
8.43	7.8889
8.348	7.945
8.268	8.0088
8.19	8.0757
8.113	8.1311
8.037	8.1972
7.963	8.24
7.891	8.2717
7.819	8.3293
7.749	8.3554
7.68	8.3791
7.613	8.376
7.546	8.3725
7.481	8.3779
7.417	8.3899
7.353	8.3808
7.291	8.3789
7.23	8.374
7.17	8.393
7.111	8.438
7.053	8.4538
6.996	8.5261
6.94	8.5398
6.885	8.541
6.83	8.5346
6.777	8.5493
6.724	8.5578
6.672	8.5696
6.621	8.6013
6.571	8.5896
6.521	8.625
6.472	8.6399
6.424	8.6179
6.377	8.665
6.33	8.5827
6.284	8.4704
6.238	8.4121
6.194	8.3435
6.15	8.3054
6.106	8.251
6.063	8.2654
6.021	8.2981
5.979	8.3291
5.938	8.3169
5.898	8.3594
5.858	8.4404
5.818	8.4221
5.779	8.5022
5.741	8.5141
5.703	8.5386
5.666	8.5434
5.629	8.5466
5.592	8.5478
5.556	8.5263
5.521	8.5066
5.486	8.5012
5.451	8.5544
5.417	8.5593
5.383	8.571
5.35	8.5498
5.317	8.5688
5.285	8.5637
5.252	8.5491
5.221	8.5371
5.189	8.5285
5.158	8.5193
5.128	8.5154
5.097	8.5041
5.068	8.4914
5.038	8.4983
5.009	8.4985
4.98	8.4992
4.951	8.4868
4.923	8.4939
4.895	8.4804
4.868	8.4819
4.84	8.4712
4.814	8.4765
4.787	8.4651
4.76	8.4695
4.734	8.4692
4.709	8.4436
4.683	8.4438
4.658	8.4304
4.633	8.4407
4.608	8.4365
4.584	8.4321
4.56	8.4336
4.536	8.4233
4.512	8.4216
4.488	8.4504
4.465	8.4421
4.442	8.4477
4.42	8.4507
4.397	8.459
4.375	8.4653
4.353	8.4538
4.331	8.4499
4.309	8.4472
4.288	8.4475
4.267	8.4411
4.246	8.4514
4.225	8.4443
4.205	8.4504
4.184	8.449
4.164	8.4492
4.144	8.4477
4.124	8.4397
4.105	8.4355
4.085	8.4377
4.066	8.4258
4.047	8.4082
4.028	8.3904
4.009	8.3586
3.991	8.3315
3.973	8.2783
3.954	8.2634
3.936	8.2507
3.918	8.2478
3.901	8.2546
3.883	8.2441
3.866	8.239
3.849	8.2424
3.832	8.2302
3.815	8.2087
3.798	8.1824
3.781	8.1838
3.765	8.1831
3.748	8.1804
3.732	8.1721
3.716	8.154
3.7	8.1338
3.685	8.1257
3.669	8.1054
3.653	8.0893
3.638	8.072
3.623	8.0481
3.608	8.021
3.593	8.0085
3.578	7.9912
3.563	7.9658
3.548	7.9321
3.534	7.9001
3.519	7.8567
3.505	7.8025
3.491	7.769
3.477	7.7478
3.463	7.7136
3.449	7.6738
3.435	7.6506
3.422	7.6196
3.408	7.6223
3.395	7.6257
3.382	7.6186
3.369	7.647
3.355	7.6389
3.342	7.6208
3.33	7.5915
3.317	7.5722
3.304	7.5556
3.292	7.5705
3.279	7.5727
3.267	7.5432
3.254	7.5249
3.242	7.5115
3.23	7.4822
3.218	7.4741
3.206	7.4519
3.194	7.4211
3.182	7.4179
3.171	7.3913
3.159	7.3857
3.148	7.355
3.136	7.3279
3.125	7.3025
3.114	7.2949
3.102	7.2834
3.091	7.2441
3.08	7.2283
3.069	7.2053
3.058	7.1865
3.048	7.185
3.037	7.1631
3.026	7.1662
3.016	7.1308
3.005	7.1057
2.995	7.0925
2.985	7.0774
2.974	7.0688
2.964	7.0249
2.954	7.0159
2.944	6.9902
2.934	6.977
2.924	6.9775
2.914	6.9724
2.904	6.9778
2.895	6.9765
2.885	6.9758
2.875	6.9975
2.866	6.9958
2.856	6.9836
2.847	6.9946
2.838	7.0056
2.828	7.0171
2.819	7.0456
2.81	7.0747
2.801	7.1015
2.792	7.1213
2.783	7.1567
2.774	7.1958
2.765	7.2256
2.756	7.2698
2.747	7.396
2.739	7.4641
2.73	7.5893
2.721	7.6638
2.713	7.7466
2.704	7.8091
2.696	7.841
2.687	7.8686
2.679	7.8652
2.671	7.8657
2.663	7.9253
2.654	7.9062
2.646	7.9221
2.638	7.9262
2.63	7.893
2.622	7.9023
2.614	7.8906
2.606	7.8518
2.599	7.8891
2.591	7.8794
2.583	7.8847
2.575	7.8657
2.568	7.8391
2.56	7.8476
2.553	7.8127
2.545	7.8528
2.538	7.8464
2.53	7.7915
2.523	7.8064
2.515	7.7964
2.508	7.8022
2.501	7.8244
2.494	7.7866
2.486	7.7724
2.479	7.7798
2.472	7.7627
2.465	7.7529
2.458	7.7326
2.451	7.7505
2.444	7.7253
2.437	7.7304
2.43	7.7195
2.424	7.7148
2.417	7.7212
2.41	7.7383
2.403	7.6938
2.397	7.6987
2.39	7.6802
2.384	7.6826
2.377	7.7168
2.37	7.6616
2.364	7.6987
2.358	7.6758
2.351	7.6689
2.345	7.6572
2.338	7.6611
2.332	7.6074
2.326	7.6523
2.32	7.6548
2.313	7.6789
2.307	7.6736
2.301	7.6762
2.295	7.6623
2.289	7.6477
2.283	7.6426
2.277	7.6501
2.271	7.664
2.265	7.6557
2.259	7.6811
2.253	7.6272
2.247	7.6379
2.241	7.665
2.236	7.6867
2.23	7.6333
2.224	7.6516
2.218	7.6762
2.213	7.6584
2.207	7.6755
2.201	7.6394
2.196	7.6543
2.19	7.7397
2.185	7.6762
2.179	7.6572
2.174	7.6289
2.168	7.6909
2.163	7.7124
2.157	7.7134
2.152	7.6875
2.147	7.6584
2.141	7.6938
2.136	7.7444
2.131	7.6655
2.126	7.7219
2.12	7.751
2.115	7.7143
2.11	7.7109
2.105	7.7007
2.1	7.6953
2.095	7.7182
2.09	7.7248
2.085	7.7168
2.079	7.759
