Name: 67941.72
Type: Soil
Class: Lunar
Subclass: Highlands
Particle Size: Fine
Sample No.: 67941.72
Owner: JHU
Origin: Apollo 16 landing site via the NASA Lunar Sample Repository at Johnson
Description: This sample is one of a suite of relatively less aluminous soils
Measurement: Directional (10 degree) hemispherical reflectance
X Units: Wavelength (micrometers)
Y Units: Reflectance (percent)
wavelength	value
14.011	0.8824
13.788	1.0264
13.571	1.0737
13.361	1.243
13.158	1.2243
12.96	1.33
12.769	1.6676
12.583	2.2663
12.402	2.7386
12.227	2.9029
12.056	2.7783
11.89	2.6343
11.729	2.6166
11.572	2.6762
11.419	2.7771
11.27	2.762
11.125	2.7809
10.983	2.8067
10.846	2.9249
10.711	2.8787
10.58	2.7269
10.452	2.5285
10.327	2.2389
10.205	1.9876
10.086	1.8772
9.97	1.7699
9.856	1.716
9.745	1.7223
9.636	1.6193
9.53	1.485
9.426	1.4008
9.324	1.3212
9.225	1.324
9.127	1.4373
9.032	1.4863
8.938	1.447
8.847	1.3735
8.757	1.4332
8.669	1.4283
8.583	1.3285
8.499	1.1651
8.416	1.0247
8.335	0.8108
8.255	0.6453
8.177	0.66
8.1	0.7334
8.025	0.9146
7.951	1.1943
7.879	1.5273
7.808	1.9126
7.737	2.3315
7.669	2.8102
7.601	3.2797
7.535	3.7173
7.47	4.2092
7.406	4.6894
7.343	5.1783
7.281	5.6216
7.22	6.0499
7.16	6.4852
7.102	6.8362
7.044	7.2142
6.987	7.5447
6.931	7.8138
6.875	8.0595
6.821	8.2199
6.768	8.4325
6.715	8.5935
6.663	8.6729
6.612	8.8304
6.562	9.0417
6.513	9.2434
6.464	9.4063
6.416	9.614
6.369	9.5695
6.322	9.5387
6.276	9.6391
6.231	9.7419
6.186	9.7879
6.142	9.8906
6.099	10.021
6.056	10.102
6.014	10.233
5.973	10.733
5.931	11.33
5.891	11.979
5.851	12.505
5.812	13.111
5.773	13.668
5.735	14.045
5.697	14.287
5.66	14.477
5.623	14.793
5.586	15.126
5.551	15.331
5.515	15.281
5.48	15.271
5.446	15.328
5.411	15.627
5.378	16.092
5.345	16.489
5.312	16.819
5.279	17.204
5.247	17.657
5.215	18.121
5.184	18.604
5.153	19.108
5.123	19.713
5.093	20.25
5.063	20.716
5.033	21.23
5.004	21.794
4.975	22.34
4.947	22.921
4.919	23.561
4.891	24.187
4.863	24.784
4.836	25.341
4.809	25.862
4.782	26.293
4.756	26.754
4.73	27.249
4.704	27.8
4.679	28.309
4.654	28.821
4.629	29.46
4.604	30.127
4.58	30.737
4.556	31.239
4.532	31.704
4.508	32.06
4.485	32.327
4.461	32.55
4.439	32.694
4.416	32.79
4.393	32.941
4.371	33.186
4.349	33.471
4.327	33.763
4.306	34.16
4.284	34.569
4.263	34.798
4.242	35.099
4.222	35.229
4.201	35.233
4.181	35.316
4.161	35.391
4.141	35.476
4.121	35.533
4.101	35.577
4.082	35.653
4.063	35.69
4.044	35.742
4.025	35.788
4.006	35.822
3.988	35.893
3.97	35.921
3.951	35.964
3.933	35.96
3.916	35.965
3.898	35.973
3.88	35.996
3.863	36.004
3.846	35.973
3.829	35.982
3.812	36.001
3.795	35.94
3.779	35.933
3.762	35.916
3.746	35.884
3.73	35.841
3.714	35.807
3.698	35.759
3.682	35.7
3.666	35.656
3.651	35.621
3.636	35.605
3.62	35.535
3.605	35.478
3.59	35.433
3.575	35.373
3.561	35.333
3.546	35.268
3.531	35.217
3.517	35.19
3.503	35.167
3.489	35.083
3.475	35.001
3.461	34.928
3.447	34.891
3.433	34.866
3.42	34.791
3.406	34.705
3.393	34.62
3.38	34.51
3.366	34.402
3.353	34.281
3.34	34.194
3.327	34.085
3.315	34.013
3.302	33.928
3.289	33.846
3.277	33.771
3.265	33.641
3.252	33.56
3.24	33.453
3.228	33.325
3.216	33.256
3.204	33.135
3.192	33.023
3.18	32.965
3.169	32.859
3.157	32.761
3.146	32.666
3.134	32.574
3.123	32.509
3.112	32.421
3.101	32.358
3.09	32.287
3.079	32.199
3.067	32.162
3.057	32.08
3.046	32.032
3.035	32.002
3.025	31.922
3.014	31.831
3.004	31.772
2.993	31.644
2.983	31.628
2.973	31.594
2.962	31.558
2.952	31.493
2.942	31.488
2.932	31.402
2.922	31.43
2.912	31.408
2.903	31.383
2.893	31.375
2.883	31.423
2.874	31.444
2.864	31.47
2.855	31.476
2.845	31.505
2.836	31.532
2.827	31.568
2.817	31.705
2.808	31.777
2.799	31.963
2.79	32.103
2.781	32.301
2.772	32.559
2.763	32.864
2.755	33.143
2.746	33.378
2.737	33.679
2.728	33.86
2.72	34.11
2.711	34.168
2.703	34.219
2.695	34.203
2.686	34.189
2.678	34.266
2.67	34.525
2.661	34.526
2.653	34.538
2.645	34.478
2.637	34.456
2.629	34.502
2.621	34.453
2.613	34.374
2.605	34.373
2.597	34.396
2.59	34.288
2.582	34.202
2.574	34.143
2.566	34.086
2.559	34.009
2.551	33.999
2.544	33.9
2.536	33.84
2.529	33.807
2.522	33.717
2.514	33.715
2.507	33.613
2.5	33.586
2.492	33.525
2.485	33.468
2.478	33.412
2.471	33.375
2.464	33.328
2.457	33.29
2.45	33.244
2.443	33.184
2.436	33.114
2.429	33.076
2.422	33.041
2.416	33
2.409	32.919
2.402	32.892
2.396	32.844
2.389	32.814
2.382	32.768
2.376	32.689
2.369	32.65
2.363	32.549
2.356	32.531
2.35	32.509
2.344	32.437
2.337	32.388
2.331	32.345
2.325	32.312
2.318	32.283
2.312	32.229
2.306	32.158
2.3	32.079
2.294	32.093
2.288	32.011
2.282	31.977
2.276	31.908
2.27	31.898
2.264	31.887
2.258	31.804
2.252	31.746
2.246	31.727
2.24	31.658
2.235	31.66
2.229	31.54
2.223	31.547
2.217	31.502
2.212	31.491
2.206	31.481
2.2	31.391
2.195	31.305
2.189	31.271
2.184	31.235
2.178	31.201
2.173	31.182
2.167	31.104
2.162	31.077
2.156	31.019
2.151	30.952
2.146	30.945
2.14	30.882
2.135	30.832
2.13	30.871
2.125	30.774
2.119	30.769
2.114	30.651
2.109	30.685
2.104	30.59
2.099	30.591
2.094	30.556
2.089	30.47
2.084	30.494
