Name: Oolitic Limestone
Type: Rocks
Class: Sedimentary
Subclass: Limestone
Particle Size: 0 - 75 Micrometers
Sample No.: limestone.7
Owner: JHU
Wavelength Range: All
Origin: Sample No. 358,  The Hunt and Salisbury Collection at the U.S.
Description: Ooids in the sample are small (0.5-0.75 mm) with laminar
Measurement: Directional (10 Degree) Hemispherical Reflectance
X Units: Wavelength (micrometers)
Y Units: Reflectance (percent)
wavelength	value
14.983	9.7301
14.645	6.8371
14.321	3.8004
14.011	4.9625
13.715	3.319
13.43	8.3556
13.158	7.4595
12.896	3.2451
12.644	2.5687
12.402	1.9971
12.169	5.9907
11.945	10.17
11.729	9.5295
11.52	6.955
11.319	3.0019
11.125	10.644
10.937	11.34
10.756	11.595
10.58	11.5
10.41	11.591
10.245	11.074
10.086	9.3294
9.931	8.2755
9.781	6.8435
9.636	5.3224
9.495	4.6392
9.358	5.3378
9.225	4.6075
9.095	3.8279
8.969	3.5807
8.847	3.3337
8.727	3.1518
8.612	2.8688
8.499	3.2946
8.389	3.6678
8.281	4.369
8.177	6.1567
8.075	7.9506
7.976	9.6602
7.879	10.558
7.784	11.247
7.692	12.215
7.601	12.375
7.513	11.694
7.427	10.64
7.343	8.6296
7.261	6.2029
7.18	4.5814
7.102	3.7381
7.025	3.9214
6.949	3.4227
6.875	3.2006
6.803	3.1274
6.733	3.2583
6.663	3.418
6.596	3.7784
6.529	4.2781
6.464	5.1507
6.4	6.1186
6.338	7.0633
6.276	5.0245
6.216	4.0074
6.157	4.2885
6.099	4.7036
6.042	5.0477
5.986	5.5242
5.931	5.8891
5.878	7.4772
5.825	9.3239
5.773	10.793
5.722	12.022
5.672	11.917
5.623	9.9055
5.574	6.1544
5.527	5.6097
5.48	8.1015
5.434	14.77
5.389	12.799
5.345	10.682
5.301	12.156
5.258	16.138
5.215	22.403
5.174	23.926
5.133	23.472
5.093	22.519
5.053	21.478
5.014	21.797
4.975	24.376
4.937	28.685
4.9	34.45
4.863	40.118
4.827	42.332
4.791	43.448
4.756	43.76
4.721	42.752
4.687	39.749
4.654	38.185
4.62	39.064
4.588	40.985
4.556	42.285
4.524	42.484
4.492	42.005
4.461	41.43
4.431	42.288
4.401	44.017
4.371	45.576
4.342	45.814
4.313	45.634
4.284	45.604
4.256	46.274
4.229	46.585
4.201	46.921
4.174	46.729
4.147	46.18
4.121	45.632
4.095	44.286
4.069	41.571
4.044	36.169
4.019	27.053
3.994	17.201
3.97	11.057
3.945	12.028
3.921	14.222
3.898	18.342
3.875	20.575
3.852	25.108
3.829	25.072
3.806	23.891
3.784	29.957
3.762	36.453
3.74	41.677
3.719	43.115
3.698	43.573
3.677	43.596
3.656	43.241
3.636	42.67
3.615	41.848
3.595	40.784
3.575	39.104
3.556	36.77
3.536	34.179
3.517	28.471
3.498	22.094
3.479	18.096
3.461	17.312
3.442	18.331
3.424	19.871
3.406	20.343
3.388	20.781
3.371	20.591
3.353	19.197
3.336	19.975
3.319	19.605
3.302	21.791
3.285	24.981
3.269	25.21
3.252	24.876
3.236	24.335
3.22	23.68
3.204	23.016
3.188	22.317
3.173	21.567
3.157	20.872
3.142	20.133
3.127	19.511
3.112	18.906
3.097	18.37
3.082	17.952
3.067	17.637
3.053	17.344
3.039	17.103
3.025	16.871
3.011	16.58
2.997	16.349
2.983	16.112
2.969	15.913
2.956	15.649
2.942	15.656
2.929	15.686
2.916	15.894
2.903	16.139
2.89	16.467
2.877	16.934
2.864	17.482
2.852	18.122
2.839	18.819
2.827	19.525
2.814	20.213
2.802	20.712
2.79	20.86
2.778	22.226
2.766	24.512
2.755	28.39
2.743	33.307
2.731	39.501
2.72	45.161
2.708	51.093
2.697	55.161
2.686	57.888
2.675	59.473
2.664	61.471
2.653	62.873
2.642	63.65
2.632	63.785
2.621	64.211
2.61	64.641
2.6	64.741
2.59	64.729
2.579	64.75
2.569	64.537
2.559	64.189
2.549	63.244
2.539	61.872
2.529	61.043
2.519	60.975
2.509	61.382
2.5	61.942
2.49	62.688
2.481	63.388
2.471	63.913
2.462	64.522
2.452	65.289
2.443	66.157
2.434	66.873
2.425	67.477
2.416	67.915
2.407	68.258
2.398	68.584
2.389	68.851
2.38	68.988
2.372	69.068
2.363	68.939
2.354	68.499
2.346	67.822
2.337	67.265
2.329	67.004
2.321	67.005
2.312	67.142
2.304	67.344
2.296	67.535
2.288	67.773
2.28	67.981
2.272	68.176
2.264	68.396
2.256	68.703
2.248	68.972
2.24	69.173
2.233	69.322
2.225	69.46
2.217	69.54
2.21	69.671
2.202	69.832
2.195	69.932
2.187	70.2
2.18	70.46
2.173	70.687
2.166	70.864
2.158	71.017
2.151	70.951
2.144	71.135
2.137	71.125
2.13	71.17
2.123	71.172
2.116	71.232
2.109	71.291
2.102	71.24
2.095	71.247
2.089	71.233
2.082	71.303
2.06	70.999
2.028	70.4
1.996	68.645
1.964	68.021
1.932	66.378
1.9	68.074
1.868	68.472
1.836	69.555
1.804	70.402
1.772	69.75
1.74	70.16
1.708	70.16
1.676	70.304
1.644	69.783
1.612	69.902
1.58	70.114
1.548	69.934
1.516	69.747
1.484	69.142
1.452	68.145
1.42	67.717
1.388	68.737
1.356	68.307
1.324	67.923
1.292	67.475
1.26	67.472
1.228	68.367
1.196	67.036
1.164	65.816
1.132	66.105
1.1	65.693
1.068	65.491
1.036	64.616
1.004	63.859
0.972	63.384
0.94	63.25
0.908	62.867
0.876	62.407
0.844	62.575
0.812	62.823
0.795	62.748
0.787	62.576
0.779	62.884
0.771	62.441
0.763	61.955
0.755	61.858
0.747	61.775
0.739	61.465
0.731	61.659
0.723	60.714
0.715	60.688
0.707	60.379
0.699	60.434
0.691	60.462
0.683	60.038
0.675	59.135
0.667	59.038
0.659	58.518
0.651	58.315
0.643	57.41
0.635	56.906
0.627	56.266
0.619	56.139
0.611	54.851
0.603	54.26
0.595	54.469
0.587	53.376
0.579	52.967
0.571	52.275
0.563	50.754
0.555	49.716
0.547	49.387
0.539	48.499
0.531	47.894
0.523	46.913
0.515	45.782
0.507	44.7
0.499	44.036
0.491	42.784
0.483	41.701
0.475	40.696
0.467	39.722
0.459	38.74
0.451	37.796
0.443	36.293
0.435	34.971
0.427	33.944
0.419	32.535
0.411	31.494
0.403	30.057
