Name: Barite, BaSO4
Type: Mineral
Class: Sulfates
Particle Size: Fine  (0-75 Micrometers)
Sample No.: barite.1
Owner: JHU
Wavelength Range: IR
Origin: Norma Vergo Sample from Carterville, Georgia.
Description: The pure white sample appeared to be pure barite with
Measurement: Bidirectional reflectance
X Units: Wavelength (micrometers)
Y Units: Reflectance (percent)
wavelength	value
25.044	8.9238
24.339	9.8384
23.672	10.4541
23.041	10.7656
22.442	10.8156
21.874	10.6992
21.334	9.436
20.82	10.8574
20.33	11.6487
19.863	11.4712
19.416	10.977
18.99	10.6079
18.581	9.9243
18.19	9.2427
17.815	8.7612
17.455	7.6011
17.109	5.0681
16.777	1.8752
16.458	0.9358
16.15	0.821
15.854	0.6714
15.568	0.7139
15.292	1.1487
15.027	2.7749
14.77	5.6819
14.521	7.0361
14.281	7.0752
14.049	7.5989
13.824	8.4367
13.607	8.7944
13.396	9.197
13.191	9.3799
12.993	8.9226
12.8	8.3533
12.614	8.2405
12.432	8.3513
12.256	8.5654
12.084	9.0913
11.918	10.0847
11.755	10.9695
11.598	11.1474
11.444	10.4138
11.294	9.6123
11.149	9.0986
11.007	8.5742
10.868	8.1643
10.733	8.2405
10.602	7.9526
10.473	7.1328
10.348	5.1824
10.225	2.7602
10.106	2.9651
9.989	4.144
9.875	3.4556
9.763	2.7703
9.654	2.0447
9.547	1.3887
9.443	1.1162
9.341	1.135
9.241	1.1619
9.143	1.2957
9.047	1.4297
8.954	1.4978
8.862	1.5132
8.772	1.4897
8.684	1.3936
8.597	1.269
8.513	1.0906
8.43	0.939
8.348	0.8965
8.268	0.999
8.19	1.146
8.113	1.52
8.037	1.5422
7.963	1.4272
7.891	1.4055
7.819	1.8154
7.749	2.6428
7.68	3.6626
7.613	4.6413
7.546	5.5998
7.481	6.2871
7.417	6.8747
7.353	7.8017
7.291	8.8628
7.23	10.1279
7.17	10.8872
7.111	11.5388
7.053	12.5271
6.996	12.6845
6.94	12.4245
6.885	13.3327
6.83	13.6982
6.777	13.9736
6.724	14.0168
6.672	13.7527
6.621	12.7121
6.571	10.9382
6.521	9.5896
6.472	9.4685
6.424	9.7058
6.377	10.6404
6.33	11.1404
6.284	9.4724
6.238	9.6079
6.194	10.6379
6.15	11.331
6.106	12.6172
6.063	13.5432
6.021	13.9616
5.979	14.4069
5.938	14.7268
5.898	14.8388
5.858	14.7856
5.818	14.8054
5.779	15.039
5.741	15.1496
5.703	15.2229
5.666	15.3149
5.629	15.4609
5.592	15.5732
5.556	15.6174
5.521	15.6594
5.486	15.7551
5.451	15.8798
5.417	16.0688
5.383	16.3889
5.35	16.6337
5.317	16.7934
5.285	16.8357
5.252	16.8149
5.221	16.7839
5.189	16.5415
5.158	16.3952
5.128	15.7282
5.097	12.7465
5.068	13.9509
5.038	15.5192
5.009	15.1828
4.98	14.5031
4.951	13.227
4.923	11.0354
4.895	7.396
4.868	6.3115
4.84	5.8191
4.814	6.9504
4.787	6.8984
4.76	7.5669
4.734	7.8686
4.709	7.3598
4.683	7.0559
4.658	7.4719
4.633	8.3908
4.608	8.4541
4.584	8.3232
4.56	8.0427
4.536	8.4656
4.512	9.239
4.488	9.8034
4.465	9.9929
4.442	10.1587
4.42	10.4387
4.397	10.8325
4.375	11.1091
4.353	11.4985
4.331	11.7429
4.309	11.5403
4.288	11.2507
4.267	11.3423
4.246	11.5757
4.225	12.0783
4.205	12.8798
4.184	13.945
4.164	15.1145
4.144	15.8989
4.124	16.4687
4.105	16.9001
4.085	17.2609
4.066	17.5866
4.047	17.8361
4.028	18.0141
4.009	18.156
3.991	18.216
3.973	18.2858
3.954	18.371
3.936	18.4877
3.918	18.6149
3.901	18.5959
3.883	18.4558
3.866	18.517
3.849	18.6608
3.832	18.8
3.815	18.9379
3.798	19.0036
3.781	19.0209
3.765	19.0139
3.748	19.0148
3.732	19.0271
3.716	19.0458
3.7	19.0561
3.685	19.0666
3.669	19.0742
3.653	19.0678
3.638	19.0417
3.623	19.0268
3.608	19.0139
3.593	19.007
3.578	19.0068
3.563	18.9833
3.548	18.9572
3.534	18.9169
3.519	18.883
3.505	18.7773
3.491	18.7724
3.477	18.8242
3.463	18.8059
3.449	18.7644
3.435	18.687
3.422	18.571
3.408	18.5048
3.395	18.5024
3.382	18.5625
3.369	18.582
3.355	18.5737
3.342	18.5117
3.33	18.3486
3.317	18.0361
3.304	17.7351
3.292	17.7954
3.279	17.8203
3.267	17.8681
3.254	17.853
3.242	17.8447
3.23	17.7407
3.218	17.5693
3.206	17.4475
3.194	17.3669
3.182	17.2966
3.171	17.2106
3.159	17.1279
3.148	17.0659
3.136	16.998
3.125	16.9218
3.114	16.8225
3.102	16.7436
3.091	16.6684
3.08	16.6416
3.069	16.5822
3.058	16.517
3.048	16.4599
3.037	16.4101
3.026	16.373
3.016	16.3134
3.005	16.2558
2.995	16.1953
2.985	16.1235
2.974	16.0883
2.964	16.0366
2.954	15.9687
2.944	15.945
2.934	15.9189
2.924	15.9094
2.914	15.9052
2.904	15.9221
2.895	15.9328
2.885	15.9712
2.875	16.0253
2.866	16.1001
2.856	16.1587
2.847	16.2666
2.838	16.4179
2.828	16.5854
2.819	16.7358
2.81	16.9755
2.801	17.1755
2.792	17.4174
2.783	17.6696
2.774	17.9577
2.765	18.2617
2.756	18.5419
2.747	18.84
2.739	19.0622
2.73	19.2434
2.721	19.3442
2.713	19.4736
2.704	19.7321
2.696	19.9465
2.687	20.2016
2.679	20.3828
2.671	20.458
2.663	20.5439
2.654	20.6047
2.646	20.6242
2.638	20.6464
2.63	20.633
2.622	20.6806
2.614	20.7023
2.606	20.6916
2.599	20.7238
2.591	20.7199
2.583	20.7055
2.575	20.7219
2.568	20.716
2.56	20.7424
2.553	20.7748
2.545	20.7473
2.538	20.7521
2.53	20.7675
2.523	20.7504
2.515	20.7197
2.508	20.6938
2.501	20.7053
2.494	20.6718
2.486	20.7451
2.479	20.7197
2.472	20.717
2.465	20.7138
2.458	20.7336
2.451	20.7324
2.444	20.7036
2.437	20.6723
2.43	20.7148
2.424	20.7192
2.417	20.7075
2.41	20.6997
2.403	20.687
2.397	20.768
2.39	20.7392
2.384	20.7407
2.377	20.749
2.37	20.7309
2.364	20.7045
2.358	20.7709
2.351	20.7602
2.345	20.7163
2.338	20.6845
2.332	20.6762
2.326	20.7148
2.32	20.7265
2.313	20.6914
2.307	20.6943
2.301	20.7465
2.295	20.6533
2.289	20.7275
2.283	20.6938
2.277	20.7138
2.271	20.6718
2.265	20.666
2.259	20.6748
2.253	20.6801
2.247	20.6899
2.241	20.7275
2.236	20.7094
2.23	20.7329
2.224	20.7817
2.218	20.7705
2.213	20.8227
2.207	20.7836
2.201	20.8403
2.196	20.809
2.19	20.8837
2.185	20.8515
2.179	20.85
2.174	20.8984
2.168	20.9028
2.163	20.9008
2.157	20.9106
2.152	20.9179
2.147	20.9399
2.141	20.9438
2.136	20.9145
2.131	20.9692
2.126	20.956
2.12	21.0371
2.115	20.9829
2.11	21.082
2.105	21.0219
2.1	21.0937
2.095	21.0956
2.09	21.1972
2.085	21.2206
2.079	21.2519
