Name: Olivine (Fo66) (Fe+2,Mg)2SiO4
Type: Mineral
Class: Silicates
Subclass: Nesosilicates (Isolated tetrahedra); (Olivine Group)
Particle Size: Fine  (0-60 Micrometers)
Sample No.: olivine.7
Owner: JHU
Wavelength Range: IR
Origin: Kiglapait Intrusion, Labrador via Trude King #KI3054
Description: Initially, the specimen was contaminated with pyroxene,
Measurement: Bidirectional reflectance
X Units: Wavelength (micrometers)
Y Units: Reflectance (percent)
wavelength	value
25.0442	3.2639
24.3388	3.5737
23.6719	3.0259
23.0407	2.3745
22.4422	1.8718
21.8741	1.9812
21.334	1.8874
20.8199	2.124
20.33	2.553
19.8627	2.4866
19.4163	2.6782
18.9896	2.9009
18.5812	3.074
18.19	3.0901
17.815	2.4438
17.4551	1.9031
17.1094	1.6255
16.7772	1.7551
16.4576	1.9487
16.15	2.1982
15.8537	2.1514
15.568	1.793
15.2925	1.6999
15.0265	1.7859
14.7697	1.9531
14.5214	2.1553
14.2814	2.3457
14.0492	2.4824
13.8244	2.5835
13.6067	2.6731
13.3957	2.6682
13.1912	2.7395
12.9929	2.6841
12.8004	2.5251
12.6135	2.3782
12.432	2.1943
12.2557	2.0183
12.0843	1.8831
11.9176	1.7109
11.7555	1.8823
11.5977	2.1086
11.444	2.5691
11.2944	2.9175
11.1487	3.1018
11.0067	3.2768
10.8682	3.4878
10.7332	3.71
10.6015	3.5552
10.473	2.6416
10.3476	2.823
10.2251	3.1184
10.1056	3.0579
9.98873	3.0876
9.87458	3.011
9.763	2.9763
9.65392	3.0537
9.54724	3.2405
9.44291	3.2961
9.34082	2.9805
9.24091	2.4565
9.14312	2.0723
9.04739	1.9597
8.95363	1.9983
8.8618	2.344
8.77183	2.6982
8.68368	2.946
8.59727	3.1106
8.51257	3.2888
8.42951	3.4531
8.34807	3.5874
8.26819	3.7959
8.18981	3.9878
8.11292	4.1655
8.03745	4.2944
7.96337	4.3501
7.89064	4.3559
7.81924	4.3845
7.74911	4.3918
7.68023	4.3494
7.61256	4.3374
7.54608	4.3945
7.48074	4.4846
7.41653	4.5603
7.35341	4.6133
7.29136	4.6081
7.23034	4.5649
7.17033	4.4263
7.11132	4.2307
7.05327	4.1496
6.99616	4.1211
6.93996	4.0984
6.88467	4.0796
6.83024	4.1247
6.77667	4.2012
6.72393	4.259
6.67201	4.3149
6.62089	4.4018
6.57054	4.5708
6.52095	4.7588
6.4721	4.9092
6.42398	4.9927
6.37657	5.0591
6.32986	5.0937
6.28382	5.0754
6.23845	5.0478
6.19373	5.008
6.14965	4.9221
6.10619	4.7212
6.06334	4.3611
6.02109	4.1853
5.97942	4.2724
5.93832	4.3166
5.89778	4.3513
5.8578	4.4094
5.81835	4.4658
5.77943	4.4482
5.74103	4.262
5.70314	4.0207
5.66574	3.8931
5.62883	3.9836
5.5924	4.1638
5.55644	4.239
5.52093	4.2402
5.48588	4.2666
5.45127	4.3743
5.41709	4.4993
5.38334	4.5898
5.35	4.6409
5.31708	4.6763
5.28456	4.7065
5.25243	4.7876
5.2207	4.8774
5.18934	4.9685
5.15836	5.0478
5.12775	5.1028
5.09749	5.1348
5.0676	5.146
5.03805	5.1482
5.00884	5.1726
4.97998	5.2771
4.95144	5.4477
4.92322	5.6345
4.89533	5.7766
4.86775	5.8752
4.84048	5.9355
4.81351	5.9958
4.78684	6.0378
4.76047	6.0813
4.73439	6.1225
4.70859	6.1667
4.68306	6.2016
4.65782	6.2444
4.63284	6.2803
4.60814	6.3349
4.58369	6.3699
4.5595	6.4153
4.53557	6.4543
4.51188	6.4958
4.48845	6.5325
4.46525	6.5766
4.44229	6.6228
4.41957	6.667
4.39708	6.7087
4.37481	6.7488
4.35277	6.8027
4.33096	6.844
4.30935	6.8752
4.28797	6.9194
4.26679	6.9675
4.24583	7.0051
4.22506	7.0539
4.2045	7.0898
4.18414	7.1272
4.16398	7.1582
4.14401	7.1965
4.12423	7.2221
4.10464	7.2583
4.08523	7.2868
4.066	7.3083
4.04696	7.3323
4.02809	7.3379
4.0094	7.3406
3.99088	7.3122
3.97253	7.2961
3.95435	7.3113
3.93634	7.3586
3.91848	7.4145
3.90079	7.4768
3.88326	7.5063
3.86589	7.5491
3.84867	7.5735
3.8316	7.592
3.81468	7.624
3.79791	7.6572
3.78129	7.7041
3.76482	7.7561
3.74848	7.7932
3.73229	7.8232
3.71624	7.8381
3.70032	7.8562
3.68454	7.8669
3.6689	7.8899
3.65338	7.9016
3.638	7.9197
3.62275	7.9289
3.60762	7.9409
3.59262	7.9355
3.57775	7.9455
3.56299	7.9348
3.54836	7.9175
3.53385	7.8894
3.51945	7.8384
3.50517	7.6318
3.49101	7.6741
3.47696	7.6872
3.46303	7.6831
3.4492	7.6257
3.43549	7.5454
3.42188	7.3486
3.40838	7.406
3.39499	7.5766
3.38171	7.5954
3.36852	7.6577
3.35544	7.7444
3.34246	7.7644
3.32958	7.7773
3.3168	7.7739
3.30411	7.7776
3.29153	7.7822
3.27903	7.7842
3.26664	7.7715
3.25433	7.7651
3.24212	7.7527
3.23	7.7287
3.21797	7.7073
3.20603	7.6758
3.19418	7.6389
3.18241	7.6228
3.17074	7.5849
3.15914	7.5552
3.14763	7.5078
3.13621	7.4934
3.12487	7.449
3.11361	7.4316
3.10243	7.3972
3.09133	7.3669
3.0803	7.3454
3.06936	7.3054
3.0585	7.2934
3.04771	7.2612
3.037	7.2295
3.02636	7.2087
3.0158	7.168
3.00531	7.1391
2.99489	7.1103
2.98454	7.0835
2.97427	7.0417
2.96407	7.0303
2.95393	7.0032
2.94387	6.969
2.93387	6.9563
2.92394	6.9199
2.91408	6.8972
2.90429	6.8845
2.89456	6.875
2.88489	6.8503
2.87529	6.8183
2.86576	6.8
2.85628	6.7959
2.84687	6.7583
2.83752	6.7197
2.82823	6.6963
2.81901	6.6814
2.80984	6.6689
2.80073	6.6614
2.79168	6.6958
2.78269	6.7004
2.77376	6.7341
2.76488	6.7449
2.75606	6.76
2.7473	6.7856
2.73859	6.8562
2.72994	6.7361
2.72134	6.7485
2.7128	7.2326
2.70431	7.6682
2.69587	7.9846
2.68748	8.1299
2.67915	8.228
2.67087	8.2595
2.66264	8.251
2.65446	8.237
2.64633	8.2351
2.63825	8.2341
2.63021	8.209
2.62223	8.2082
2.6143	8.2026
2.60641	8.1738
2.59857	8.1831
2.59078	8.1765
2.58304	8.1697
2.57534	8.1384
2.56768	8.1284
2.56008	8.112
2.55251	8.073
2.54499	8.0681
2.53752	8.061
2.53009	8.0383
2.5227	8.042
2.51536	8.0046
2.50806	8.0036
2.5008	7.999
2.49358	7.9822
2.4864	7.9573
2.47927	7.9348
2.47218	7.9577
2.46512	7.9514
2.45811	7.9404
2.45114	7.9336
2.4442	7.926
2.43731	7.8784
2.43045	7.8742
2.42363	7.8635
2.41685	7.8606
2.41011	7.8657
2.40341	7.8235
2.39674	7.8218
2.39011	7.8286
2.38352	7.7744
2.37696	7.7854
2.37044	7.7427
2.36395	7.7492
2.35751	7.7656
2.35109	7.7546
2.34471	7.751
2.33836	7.7378
2.33205	7.7309
2.32578	7.7573
2.31953	7.6721
2.31332	7.6946
2.30714	7.6848
2.301	7.6838
2.29489	7.6972
2.28881	7.698
2.28276	7.7029
2.27675	7.6848
2.27076	7.7102
2.26481	7.6907
2.25889	7.7068
2.253	7.6968
2.24714	7.7099
2.24131	7.7068
2.23551	7.6682
2.22974	7.6518
2.224	7.6572
2.21829	7.6792
2.21261	7.6797
2.20696	7.6457
2.20134	7.6775
2.19574	7.6572
2.19018	7.6494
2.18464	7.7012
2.17913	7.706
2.17365	7.6831
2.16819	7.6714
2.16277	7.6682
2.15737	7.6692
2.15199	7.6672
2.14665	7.6496
2.14133	7.6697
2.13603	7.6738
2.13077	7.6836
2.12552	7.7121
2.12031	7.7195
2.11512	7.6968
2.10995	7.6926
2.10481	7.7036
2.0997	7.7126
2.09461	7.7358
2.08954	7.7324
2.0845	7.7627
2.07948	7.7715
