Name: Olivine (Fo11) (Fe+2,Mg)2SiO4
Type: Mineral
Class: Silicates
Subclass: Nesosilicates (Isolated tetrahedra); (Olivine Group)
Particle Size: Fine  (0-60  Micrometers)
Sample No.: olivine.10
Owner: JHU
Wavelength Range: IR
Origin: Twin Sisters Peak, Washington via Trude King #TSD
Description: Olivine from the Twin Sisters intrusive was optically
Measurement: Bidirectional reflectance
X Units: Wavelength (micrometers)
Y Units: Reflectance (percent)
wavelength	value
25.0442	2.5518
24.3388	3.0295
23.6719	3.0598
23.0407	2.9512
22.4422	2.6157
21.8741	1.9458
21.334	1.8738
20.8199	1.634
20.33	1.7178
19.8627	2.2859
19.4163	2.4497
18.9896	2.8081
18.5812	2.5576
18.19	2.6252
17.815	2.4526
17.4551	2.1907
17.1094	1.7375
16.7772	1.4385
16.4576	1.4778
16.15	1.6865
15.8537	1.9094
15.568	2.0176
15.2925	1.9253
15.0265	1.854
14.7697	1.9951
14.5214	2.2344
14.2814	2.5115
14.0492	2.7642
13.8244	2.9695
13.6067	3.1543
13.3957	3.2134
13.1912	3.3061
12.9929	3.2759
12.8004	3.1777
12.6135	2.9709
12.432	2.606
12.2557	2.2573
12.0843	1.8335
11.9176	1.5601
11.7555	1.6567
11.5977	1.8018
11.444	2.2209
11.2944	2.4363
11.1487	2.5376
11.0067	2.6802
10.8682	2.7749
10.7332	2.9077
10.6015	3.0549
10.473	3.1096
10.3476	2.6536
10.2251	2.1999
10.1056	2.7932
9.98873	2.8862
9.87458	3.0266
9.763	3.0964
9.65392	3.2014
9.54724	3.3601
9.44291	3.5566
9.34082	3.8625
9.24091	3.7881
9.14312	3.4128
9.04739	3.187
8.95363	3.0593
8.8618	3.0828
8.77183	3.3799
8.68368	3.7573
8.59727	4.0798
8.51257	4.4289
8.42951	4.654
8.34807	4.9573
8.26819	5.1911
8.18981	5.436
8.11292	5.7976
8.03745	6.074
7.96337	6.3042
7.89064	6.3918
7.81924	6.4118
7.74911	6.4568
7.68023	6.5071
7.61256	6.4492
7.54608	6.3445
7.48074	6.3782
7.41653	6.4582
7.35341	6.563
7.29136	6.7275
7.23034	6.7544
7.17033	6.8088
7.11132	6.9302
7.05327	6.9712
6.99616	7.1479
6.93996	7.3833
6.88467	7.5544
6.83024	7.604
6.77667	7.6924
6.72393	7.8725
6.67201	8.0451
6.62089	8.1665
6.57054	8.2387
6.52095	8.1745
6.4721	8.1738
6.42398	8.1504
6.37657	8.0574
6.32986	7.9922
6.28382	7.8967
6.23845	7.9253
6.19373	8.0158
6.14965	8.0256
6.10619	7.9624
6.06334	7.5368
6.02109	6.5859
5.97942	6.404
5.93832	6.7243
5.89778	6.8164
5.8578	6.8235
5.81835	7.0044
5.77943	7.0852
5.74103	7.061
5.70314	6.6699
5.66574	6.0918
5.62883	5.7192
5.5924	5.9873
5.55644	6.6982
5.52093	6.9162
5.48588	6.8955
5.45127	6.8367
5.41709	6.9805
5.38334	7.2175
5.35	7.4333
5.31708	7.5583
5.28456	7.6169
5.25243	7.594
5.2207	7.55
5.18934	7.7004
5.15836	7.9309
5.12775	8.1311
5.09749	8.2724
5.0676	8.3865
5.03805	8.4077
5.00884	8.3464
4.97998	8.2102
4.95144	8.0002
4.92322	8.1516
4.89533	8.5881
4.86775	9.1853
4.84048	9.5779
4.81351	9.7231
4.78684	9.812
4.76047	9.8755
4.73439	9.9084
4.70859	9.9431
4.68306	9.9758
4.65782	10.0014
4.63284	10.0139
4.60814	10.04
4.58369	10.0622
4.5595	10.0986
4.53557	10.1086
4.51188	10.1352
4.48845	10.1643
4.46525	10.1772
4.44229	10.2075
4.41957	10.2417
4.39708	10.2673
4.37481	10.2815
4.35277	10.2942
4.33096	10.3049
4.30935	10.3188
4.28797	10.3608
4.26679	10.3772
4.24583	10.3835
4.22506	10.4028
4.2045	10.4192
4.18414	10.4118
4.16398	10.4043
4.14401	10.4101
4.12423	10.4067
4.10464	10.4135
4.08523	10.4238
4.066	10.4062
4.04696	10.4011
4.02809	10.3637
4.0094	10.3291
3.99088	10.3132
3.97253	10.3147
3.95435	10.3144
3.93634	10.3213
3.91848	10.3249
3.90079	10.3156
3.88326	10.2995
3.86589	10.2658
3.84867	10.2488
3.8316	10.2353
3.81468	10.2085
3.79791	10.1958
3.78129	10.1772
3.76482	10.1738
3.74848	10.1557
3.73229	10.1174
3.71624	10.0881
3.70032	10.0732
3.68454	10.0476
3.6689	10.0246
3.65338	9.9941
3.638	9.9587
3.62275	9.9297
3.60762	9.8987
3.59262	9.8684
3.57775	9.8281
3.56299	9.7778
3.54836	9.728
3.53385	9.6682
3.51945	9.5664
3.50517	9.3784
3.49101	9.3872
3.47696	9.3974
3.46303	9.3745
3.4492	9.2993
3.43549	9.1821
3.42188	8.967
3.40838	8.9785
3.39499	9.0959
3.38171	9.0749
3.36852	9.1211
3.35544	9.1535
3.34246	9.1577
3.32958	9.1511
3.3168	9.1142
3.30411	9.0959
3.29153	9.0744
3.27903	9.0403
3.26664	9.0061
3.25433	8.9743
3.24212	8.9331
3.23	8.8855
3.21797	8.8606
3.20603	8.8293
3.19418	8.7898
3.18241	8.7351
3.17074	8.7112
3.15914	8.6636
3.14763	8.624
3.13621	8.5722
3.12487	8.53
3.11361	8.4868
3.10243	8.4302
3.09133	8.3989
3.0803	8.3574
3.06936	8.3142
3.0585	8.2783
3.04771	8.2334
3.037	8.1911
3.02636	8.1618
3.0158	8.1067
3.00531	8.0495
2.99489	7.9983
2.98454	7.9463
2.97427	7.8806
2.96407	7.823
2.95393	7.7673
2.94387	7.7107
2.93387	7.6745
2.92394	7.6267
2.91408	7.5744
2.90429	7.5486
2.89456	7.5132
2.88489	7.5002
2.87529	7.4595
2.86576	7.4299
2.85628	7.4316
2.84687	7.4145
2.83752	7.3806
2.82823	7.3662
2.81901	7.3359
2.80984	7.2832
2.80073	7.2497
2.79168	7.238
2.78269	7.2334
2.77376	7.2063
2.76488	7.1787
2.75606	7.1155
2.7473	6.8562
2.73859	6.7251
2.72994	6.582
2.72134	6.2749
2.7128	5.8074
2.70431	6.2478
2.69587	7.8955
2.68748	8.8664
2.67915	9.5981
2.67087	10.0305
2.66264	10.0471
2.65446	10.0649
2.64633	10.0635
2.63825	10.0693
2.63021	10.1562
2.62223	10.0439
2.6143	10.0566
2.60641	10.1147
2.59857	10.0525
2.59078	10.0449
2.58304	10.0893
2.57534	10.0193
2.56768	9.9448
2.56008	9.958
2.55251	9.948
2.54499	9.9111
2.53752	9.9109
2.53009	9.8855
2.5227	9.8667
2.51536	9.8349
2.50806	9.8259
2.5008	9.8135
2.49358	9.8266
2.4864	9.8352
2.47927	9.8366
2.47218	9.812
2.46512	9.8105
2.45811	9.8181
2.45114	9.7861
2.4442	9.7763
2.43731	9.7885
2.43045	9.7651
2.42363	9.7197
2.41685	9.7143
2.41011	9.748
2.40341	9.769
2.39674	9.7429
2.39011	9.7075
2.38352	9.6811
2.37696	9.6716
2.37044	9.6882
2.36395	9.6567
2.35751	9.676
2.35109	9.6782
2.34471	9.6396
2.33836	9.5766
2.33205	9.5974
2.32578	9.5864
2.31953	9.5947
2.31332	9.6223
2.30714	9.6477
2.301	9.6333
2.29489	9.6621
2.28881	9.6748
2.28276	9.6548
2.27675	9.6787
2.27076	9.6899
2.26481	9.6841
2.25889	9.6777
2.253	9.6921
2.24714	9.6914
2.24131	9.6802
2.23551	9.7002
2.22974	9.7182
2.224	9.6802
2.21829	9.7158
2.21261	9.6989
2.20696	9.6968
2.20134	9.6809
2.19574	9.7402
2.19018	9.7187
2.18464	9.7473
2.17913	9.7624
2.17365	9.7849
2.16819	9.7607
2.16277	9.7763
2.15737	9.7741
2.15199	9.7431
2.14665	9.7461
2.14133	9.7578
2.13603	9.8222
2.13077	9.8012
2.12552	9.8154
2.12031	9.833
2.11512	9.8178
2.10995	9.8059
2.10481	9.8589
2.0997	9.8332
2.09461	9.8852
2.08954	9.8987
2.0845	9.8779
2.07948	9.8899
