Name: Spodumene LiAlSi2O6
Type: Mineral
Class: Silicates
Subclass: Inosilicates (Framework silicates); Pyroxene Group
Particle Size: Fine  (Less than 2 Micrometers)
Sample No.: spodum.1
Owner: JHU
Wavelength Range: IR
Origin: Anita Mine, Pala Chief Hill, Pala, San Diego Co., California, USA
Description: The hand sample was 3 cm x 1 cm x 1 cm, transparent,
Measurement: Transmission
X Units: Wavelength (micrometers)
Y Units: Transmittance (percent)
wavelength	value
25.044	53.8749
24.339	66.3631
23.672	64.0701
23.041	57.3045
22.442	47.1346
21.874	36.289
21.334	24.7753
20.82	20.6914
20.33	21.0468
19.863	24.0839
19.416	31.6523
18.99	38.7187
18.581	38.5858
18.19	47.9237
17.815	54.9891
17.455	51.6815
17.109	40.8017
16.777	38.1425
16.458	49.1805
16.15	55.2469
15.854	48.7811
15.568	38.3866
15.292	51.8612
15.027	63.1795
14.77	68.9168
14.521	71.3524
14.281	72.2762
14.049	72.6277
13.824	73.4432
13.607	74.3494
13.396	74.908
13.191	75.9124
12.993	76.6189
12.8	76.8108
12.614	77.5379
12.432	77.8343
12.256	77.7229
12.084	75.9124
11.918	71.3748
11.755	62.41
11.598	51.3622
11.444	52.3265
11.294	44.7347
11.149	35.1942
11.007	27.3027
10.868	22.727
10.733	27.6347
10.602	35.5312
10.473	38.5707
10.348	42.0097
10.225	40.7763
10.106	36.9189
9.989	29.7861
9.875	18.9716
9.763	10.2607
9.654	8.6855
9.547	13.8564
9.443	19.0571
9.341	18.8793
9.241	16.4414
9.143	15.6396
9.047	19.08
8.954	18.3754
8.862	17.622
8.772	19.747
8.684	26.1977
8.597	37.3153
8.513	48.5384
8.43	57.8006
8.348	65.7645
8.268	72.3758
8.19	77.1778
8.113	80.3428
8.037	82.5105
7.963	84.0379
7.891	85.0642
7.819	85.958
7.749	86.6582
7.68	87.1619
7.613	87.5447
7.546	87.8682
7.481	88.2107
7.417	88.4004
7.353	88.5371
7.291	88.5908
7.23	88.6729
7.17	88.5127
7.111	88.4278
7.053	88.4961
6.996	88.6145
6.94	88.7693
6.885	88.9463
6.83	89.3118
6.777	90.0047
6.724	90.5193
6.672	90.7686
6.621	90.8535
6.571	91.0281
6.521	90.9502
6.472	90.5625
6.424	90.2029
6.377	89.7344
6.33	89.1414
6.284	88.3828
6.238	87.4873
6.194	86.4395
6.15	86.055
6.106	85.9346
6.063	86.6885
6.021	88.2725
5.979	89.544
5.938	91.1035
5.898	92.0105
5.858	92.5222
5.818	92.9688
5.779	93.1309
5.741	93.3379
5.703	93.4658
5.666	93.5203
5.629	93.6126
5.592	93.5586
5.556	93.6152
5.521	93.7668
5.486	93.917
5.451	94.1094
5.417	94.241
5.383	94.241
5.35	94.3503
5.317	94.4883
5.285	94.6338
5.252	94.8867
5.221	94.9717
5.189	95.0896
5.158	95.2061
5.128	95.2488
5.097	95.2842
5.068	95.332
5.038	95.3171
5.009	95.3235
4.98	95.3733
4.951	95.4368
4.923	95.428
4.895	95.4299
4.868	95.4324
4.84	95.4958
4.814	95.4773
4.787	95.4939
4.76	95.5295
4.734	95.6252
4.709	95.6467
4.683	95.6765
4.658	95.6638
4.633	95.7063
4.608	95.7708
4.584	95.8533
4.56	95.8357
4.536	95.8381
4.512	95.8538
4.488	95.9431
4.465	96.01
4.442	95.988
4.42	96.1042
4.397	96.0842
4.375	96.2224
4.353	96.2234
4.331	96.3079
4.309	96.2932
4.288	96.3538
4.267	96.3894
4.246	96.4324
4.225	96.5002
4.205	96.4905
4.184	96.5085
4.164	96.5608
4.144	96.5583
4.124	96.6023
4.105	96.6218
4.085	96.6409
4.066	96.6663
4.047	96.7449
4.028	96.719
4.009	96.6999
3.991	96.7009
3.973	96.6428
3.954	96.7068
3.936	96.7771
3.918	96.8396
3.901	96.7937
3.883	96.7888
3.866	96.7034
3.849	96.7756
3.832	96.7507
3.815	96.7624
3.798	96.7048
3.781	96.7185
3.765	96.5779
3.748	96.6291
3.732	96.5002
3.716	96.4275
3.7	96.3464
3.685	96.2952
3.669	96.2385
3.653	96.2366
3.638	96.1545
3.623	96.0544
3.608	95.906
3.593	95.8186
3.578	95.7068
3.563	95.6404
3.548	95.5017
3.534	95.2971
3.519	94.9006
3.505	93.9724
3.491	94.3152
3.477	94.2029
3.463	94.0486
3.449	93.739
3.435	93.2444
3.422	92.2712
3.408	92.3753
3.395	92.8557
3.382	92.7268
3.369	92.9119
3.355	93.0022
3.342	92.8591
3.33	92.6873
3.317	92.4802
3.304	92.303
3.292	92.0393
3.279	91.7537
3.267	91.449
3.254	91.0281
3.242	90.6609
3.23	90.28
3.218	90.0007
3.206	89.5193
3.194	89.0818
3.182	88.698
3.171	88.281
3.159	87.7927
3.148	87.198
3.136	86.699
3.125	86.0535
3.114	85.5115
3.102	85.0486
3.091	84.5174
3.08	84.0291
3.069	83.5681
3.058	83.1638
3.048	82.8201
3.037	82.2224
3.026	81.617
3.016	80.7752
3.005	79.9392
2.995	79.0945
2.985	78.2693
2.974	77.2674
2.964	76.1053
2.954	75.5203
2.944	75.2264
2.934	75.0945
2.924	74.8328
2.914	74.9295
2.904	75.3943
2.895	76.0936
2.885	76.9607
2.875	77.8172
2.866	78.7625
2.856	79.8875
2.847	80.8289
2.838	81.6531
2.828	82.5594
2.819	83.4695
2.81	84.3201
2.801	85.3904
2.792	86.8279
2.783	88.2849
2.774	89.7927
2.765	91.3181
2.756	92.8015
2.747	94.2849
2.739	95.614
2.73	96.6726
2.721	97.5046
2.713	98.1482
2.704	98.238
2.696	98.5935
2.687	98.7976
2.679	98.9812
2.671	99.0437
2.663	99.2351
2.654	99.071
2.646	99.0896
2.638	99.1228
2.63	99.2126
2.622	99.1833
2.614	99.1951
2.606	99.1599
2.599	99.197
2.591	99.3982
2.583	99.4412
2.575	99.2517
2.568	99.238
2.56	99.3982
2.553	99.3806
2.545	99.449
2.538	99.3826
2.53	99.488
2.523	99.3669
2.515	99.5271
2.508	99.5896
2.501	99.7146
2.494	99.6716
2.486	99.6267
2.479	99.7361
2.472	99.6169
2.465	99.6794
2.458	99.7966
2.451	99.8064
2.444	99.7497
2.437	100.025
2.43	99.9841
2.424	99.8669
2.417	99.7068
2.41	100.031
2.403	100.174
2.397	100.041
2.39	100.152
2.384	100.344
2.377	100.219
2.37	100.22
2.364	100.304
2.358	100.351
2.351	100.394
2.345	100.39
2.338	100.375
2.332	100.447
2.326	100.535
2.32	100.51
2.313	100.668
2.307	100.758
2.301	100.648
2.295	100.726
2.289	100.845
2.283	100.767
2.277	100.765
2.271	101
2.265	100.961
2.259	100.996
2.253	101.07
2.247	101.234
2.241	101.023
2.236	101.336
2.23	101.281
2.224	101
2.218	101.308
2.213	101.25
2.207	101.273
2.201	101.976
2.196	101.8
2.19	101.613
2.185	101.758
2.179	101.504
2.174	101.937
2.168	101.914
2.163	101.925
2.157	102.066
2.152	102.238
2.147	102
2.141	102.144
2.136	102.094
2.131	102.066
2.126	102.035
2.12	102.519
2.115	102.453
2.11	102.242
2.105	102.632
2.1	102.722
2.095	102.719
2.09	102.769
2.085	102.765
2.079	102.312
