Name: Illite (K,H3O)(Al,Mg,Fe)2(Si,Al)4O10[(OH)2,H2O]
Type: Mineral
Class: Silicates
Subclass: Phyllosilicates (Sheet Silicates); (Mica Group)
Particle Size: Fine  (0-2 micrometers)
Sample No.: illite.1
Owner: JHU
Wavelength Range: IR
Origin: Silver Hill, Montana via Clay Mineral Society, Source Clay
Description: The sample was a greenish, earthy clay.  The bulk
Measurement: Bidirectional reflectance
X Units: Wavelength (micrometers)
Y Units: Reflectance (percent)
wavelength	value
25.0442	2.1543
24.3388	2.0059
23.6719	1.6719
23.0407	1.678
22.4422	1.7236
21.8741	1.7649
21.334	1.7759
20.8199	1.8279
20.33	1.6157
19.8627	1.5757
19.4163	1.5867
18.9896	1.7002
18.5812	1.8921
18.19	1.9712
17.815	2.0276
17.4551	1.9431
17.1094	1.7466
16.7772	1.385
16.4576	0.9482
16.15	0.7141
15.8537	0.6777
15.568	0.7053
15.2925	0.8198
15.0265	0.8899
14.7697	0.9248
14.5214	1.0027
14.2814	1.0786
14.0492	1.2666
13.8244	1.4067
13.6067	1.4695
13.3957	1.3625
13.1912	1.3708
12.9929	1.5588
12.8004	1.7224
12.6135	1.6926
12.432	1.6064
12.2557	1.5542
12.0843	1.3909
11.9176	1.5046
11.7555	1.7158
11.5977	1.7004
11.444	1.6416
11.2944	1.5293
11.1487	1.4187
11.0067	1.2024
10.8682	1.1116
10.7332	1.1321
10.6015	1.2021
10.473	1.1826
10.3476	1.1028
10.2251	1.0601
10.1056	1.0181
9.98873	1.0337
9.87458	1.102
9.763	1.1765
9.65392	1.355
9.54724	1.573
9.44291	1.6423
9.34082	1.605
9.24091	1.5454
9.14312	1.6499
9.04739	1.7837
8.95363	1.8843
8.8618	2.0102
8.77183	2.0564
8.68368	1.9153
8.59727	1.6738
8.51257	1.3684
8.42951	0.9675
8.34807	0.6038
8.26819	0.4546
8.18981	0.4961
8.11292	0.6533
8.03745	0.8774
7.96337	1.1374
7.89064	1.4248
7.81924	1.7248
7.74911	2.0347
7.68023	2.3325
7.61256	2.5908
7.54608	2.8418
7.48074	3.0591
7.41653	3.2561
7.35341	3.4407
7.29136	3.5869
7.23034	3.7236
7.17033	3.7793
7.11132	3.685
7.05327	3.6384
6.99616	3.7436
6.93996	4.0024
6.88467	4.3154
6.83024	4.6108
6.77667	4.8711
6.72393	5.094
6.67201	5.2898
6.62089	5.4582
6.57054	5.5871
6.52095	5.7139
6.4721	5.7949
6.42398	5.8093
6.37657	5.7759
6.32986	5.6594
6.28382	5.3921
6.23845	4.9204
6.19373	4.3091
6.14965	3.896
6.10619	3.853
6.06334	4.0351
6.02109	4.209
5.97942	4.4048
5.93832	4.779
5.89778	5.1338
5.8578	5.4004
5.81835	5.5561
5.77943	5.7014
5.74103	5.813
5.70314	5.8706
5.66574	5.8816
5.62883	5.8852
5.5924	5.8581
5.55644	5.8335
5.52093	5.845
5.48588	5.9006
5.45127	6.0212
5.41709	6.1601
5.38334	6.3205
5.35	6.4895
5.31708	6.6899
5.28456	6.8935
5.25243	7.1272
5.2207	7.3523
5.18934	7.5981
5.15836	7.8425
5.12775	8.062
5.09749	8.2678
5.0676	8.4321
5.03805	8.594
5.00884	8.7514
4.97998	8.8674
4.95144	8.9678
4.92322	9.0608
4.89533	9.1462
4.86775	9.2446
4.84048	9.3347
4.81351	9.3933
4.78684	9.4682
4.76047	9.5708
4.73439	9.6611
4.70859	9.7588
4.68306	9.8523
4.65782	9.9599
4.63284	10.0691
4.60814	10.1801
4.58369	10.271
4.5595	10.3442
4.53557	10.406
4.51188	10.4736
4.48845	10.5566
4.46525	10.6328
4.44229	10.6967
4.41957	10.771
4.39708	10.8171
4.37481	10.8774
4.35277	10.9006
4.33096	10.938
4.30935	10.9494
4.28797	10.9582
4.26679	10.935
4.24583	11.0083
4.22506	11.1018
4.2045	11.1384
4.18414	11.1657
4.16398	11.2007
4.14401	11.239
4.12423	11.2641
4.10464	11.3091
4.08523	11.3479
4.066	11.373
4.04696	11.3943
4.02809	11.4301
4.0094	11.4482
3.99088	11.4563
3.97253	11.4604
3.95435	11.4731
3.93634	11.4812
3.91848	11.4807
3.90079	11.4812
3.88326	11.4712
3.86589	11.4426
3.84867	11.426
3.8316	11.3842
3.81468	11.3598
3.79791	11.3122
3.78129	11.2549
3.76482	11.1997
3.74848	11.1247
3.73229	11.0483
3.71624	10.9641
3.70032	10.8801
3.68454	10.8098
3.6689	10.7424
3.65338	10.6679
3.638	10.605
3.62275	10.5075
3.60762	10.4082
3.59262	10.3122
3.57775	10.1853
3.56299	10.0761
3.54836	9.9284
3.53385	9.7834
3.51945	9.6606
3.50517	9.5383
3.49101	9.4834
3.47696	9.3843
3.46303	9.2895
3.4492	9.1462
3.43549	8.9922
3.42188	8.8066
3.40838	8.6719
3.39499	8.5866
3.38171	8.4614
3.36852	8.3723
3.35544	8.2429
3.34246	8.1101
3.32958	7.9868
3.3168	7.8359
3.30411	7.6936
3.29153	7.5403
3.27903	7.4121
3.26664	7.2927
3.25433	7.1719
3.24212	7.0478
3.23	6.9343
3.21797	6.7959
3.20603	6.6731
3.19418	6.5464
3.18241	6.425
3.17074	6.3149
3.15914	6.2165
3.14763	6.1206
3.13621	6.0234
3.12487	5.9477
3.11361	5.8772
3.10243	5.8183
3.09133	5.769
3.0803	5.7373
3.06936	5.6919
3.0585	5.6653
3.04771	5.6377
3.037	5.6194
3.02636	5.5918
3.0158	5.5605
3.00531	5.5307
2.99489	5.5437
2.98454	5.5395
2.97427	5.5239
2.96407	5.4924
2.95393	5.4477
2.94387	5.4136
2.93387	5.3945
2.92394	5.3594
2.91408	5.3613
2.90429	5.3601
2.89456	5.3652
2.88489	5.3315
2.87529	5.3057
2.86576	5.1938
2.85628	4.9697
2.84687	4.4956
2.83752	3.98
2.82823	3.4707
2.81901	3.0569
2.80984	2.7187
2.80073	2.4128
2.79168	2.0623
2.78269	1.7241
2.77376	1.4231
2.76488	1.2588
2.75606	1.2432
2.7473	1.4358
2.73859	1.6487
2.72994	2.0835
2.72134	2.9941
2.7128	4.2334
2.70431	4.3826
2.69587	6.591
2.68748	8.4731
2.67915	9.7573
2.67087	10.6589
2.66264	11.3633
2.65446	11.6816
2.64633	11.9018
2.63825	11.989
2.63021	12.0742
2.62223	12.1252
2.6143	12.1677
2.60641	12.2241
2.59857	12.3159
2.59078	12.3894
2.58304	12.4665
2.57534	12.5427
2.56768	12.6284
2.56008	12.6516
2.55251	12.6963
2.54499	12.7436
2.53752	12.7986
2.53009	12.791
2.5227	12.7651
2.51536	12.7715
2.50806	12.7229
2.5008	12.7407
2.49358	12.6616
2.4864	12.6538
2.47927	12.7007
2.47218	12.6189
2.46512	12.5581
2.45811	12.5298
2.45114	12.5698
2.4442	12.4961
2.43731	12.519
2.43045	12.5747
2.42363	12.6943
2.41685	12.7661
2.41011	12.872
2.40341	12.8842
2.39674	12.8886
2.39011	12.8352
2.38352	12.8198
2.37696	12.7929
2.37044	12.77
2.36395	12.7382
2.35751	12.6997
2.35109	12.6762
2.34471	12.7204
2.33836	12.7746
2.33205	12.8745
2.32578	12.9768
2.31953	13.0742
2.31332	13.1645
2.30714	13.2619
2.301	13.3552
2.29489	13.4404
2.28881	13.5461
2.28276	13.5219
2.27675	13.4892
2.27076	13.3943
2.26481	13.2505
2.25889	13.1809
2.253	13.1506
2.24714	13.1167
2.24131	13.0896
2.23551	13.0615
2.22974	12.9155
2.224	12.8586
2.21829	12.8547
2.21261	12.8156
2.20696	12.8032
2.20134	12.955
2.19574	13.1089
2.19018	13.3056
2.18464	13.424
2.17913	13.6196
2.17365	13.8225
2.16819	13.9121
2.16277	14.0083
2.15737	14.136
2.15199	14.1513
2.14665	14.1838
2.14133	14.2016
2.13603	14.2805
2.13077	14.2446
2.12552	14.3095
2.12031	14.342
2.11512	14.3078
2.10995	14.4091
2.10481	14.4465
2.0997	14.3613
2.09461	14.4768
2.08954	14.457
2.0845	14.4853
2.07948	14.5341
