Name: Albite NaAlSi3O8
Type: Mineral
Class: Silicates
Subclass: Tectosilicates (Framework silicates) (Feldspar Group)
Particle Size: Fine (less than 2 Micrometers)
Sample No.: albite.1
Owner: JHU
Wavelength Range: IR
Origin: Sample from Rutherford, Virginia, USA via the Smithsonian
Description: The sample was a large (2 cm x 2 cm x 2 cm) fragment of
Measurement: Transmission
X Units: Wavelength (micrometers)
Y Units: Transmittance (percent)
wavelength	value
25.044	54.6874
24.339	59.6288
23.672	43.6171
23.041	50.6092
22.442	75.6814
21.874	69.3397
21.334	67.6444
20.82	70.4764
20.33	85.8338
19.863	87.3299
19.416	83.7498
18.99	65.8866
18.581	68.4061
18.19	82.3963
17.815	80.3826
17.455	68.4227
17.109	46.1376
16.777	45.5399
16.458	54.7518
16.15	70.5174
15.854	82.1062
15.568	74.533
15.292	64.6561
15.027	84.9959
14.77	88.2654
14.521	88.7468
14.281	87.24
14.049	82.0281
13.824	66.5921
13.607	75.1873
13.396	63.016
13.191	64.6546
12.993	75.5452
12.8	76.115
12.614	75.6023
12.432	89.3943
12.256	91.2151
12.084	91.6311
11.918	91.0042
11.755	89.5335
11.598	87.0315
11.444	84.4138
11.294	82.8128
11.149	80.6678
11.007	77.6561
10.868	72.9861
10.733	68.1258
10.602	60.9749
10.473	51.5868
10.348	39.9574
10.225	26.9184
10.106	16.0786
9.989	14.8364
9.875	16.0898
9.763	17.9751
9.654	14.4609
9.547	18.291
9.443	23.8935
9.341	32.4496
9.241	36.9613
9.143	27.2675
9.047	27.8984
8.954	34.4442
8.862	33.1801
8.772	25.914
8.684	25.9228
8.597	25.9726
8.513	31.3637
8.43	42.1552
8.348	52.9894
8.268	60.6837
8.19	66.741
8.113	71.0281
8.037	74.3143
7.963	76.8729
7.891	78.919
7.819	80.545
7.749	82.0769
7.68	83.2129
7.613	84.1629
7.546	85.0694
7.481	85.8753
7.417	86.5183
7.353	87.127
7.291	87.7605
7.23	88.1768
7.17	88.739
7.111	89.3425
7.053	89.6658
6.996	89.918
6.94	90.0925
6.885	90.5637
6.83	91.0403
6.777	91.28
6.724	91.6355
6.672	91.95
6.621	92.0869
6.571	92.3308
6.521	92.4981
6.472	92.6082
6.424	92.7839
6.377	92.8242
6.33	92.762
6.284	92.6453
6.238	92.252
6.194	91.7734
6.15	91.8416
6.106	92.3147
6.063	92.7229
6.021	92.9141
5.979	92.9277
5.938	93.6814
5.898	94.0505
5.858	94.2947
5.818	94.3972
5.779	94.3604
5.741	94.4795
5.703	94.5994
5.666	94.6677
5.629	94.8643
5.592	94.8662
5.556	94.9929
5.521	95.196
5.486	95.4148
5.451	95.6289
5.417	95.8118
5.383	95.9119
5.35	96.1018
5.317	96.2341
5.285	96.3164
5.252	96.3572
5.221	96.3689
5.189	96.4958
5.158	96.6277
5.128	96.6892
5.097	96.7803
5.068	96.8721
5.038	96.9651
5.009	97.0247
4.98	97.1238
4.951	97.323
4.923	97.3137
4.895	97.3337
4.868	97.4216
4.84	97.5017
4.814	97.6081
4.787	97.5642
4.76	97.6086
4.734	97.6697
4.709	97.7234
4.683	97.7781
4.658	97.8328
4.633	97.8767
4.608	97.8464
4.584	98.0564
4.56	98.0647
4.536	98.0989
4.512	98.1448
4.488	98.2175
4.465	98.2097
4.442	98.2024
4.42	98.3933
4.397	98.4006
4.375	98.4978
4.353	98.4573
4.331	98.5779
4.309	98.6174
4.288	98.6355
4.267	98.6872
4.246	98.7292
4.225	98.7854
4.205	98.8264
4.184	98.8127
4.164	98.8376
4.144	98.8611
4.124	98.8845
4.105	98.885
4.085	98.9392
4.066	98.9324
4.047	99.0076
4.028	98.9597
4.009	98.9372
3.991	98.8562
3.973	98.9607
3.954	98.9675
3.936	99.0203
3.918	99.1584
3.901	99.1912
3.883	99.0544
3.866	99.0642
3.849	99.1804
3.832	99.1858
3.815	99.1999
3.798	99.2156
3.781	99.3132
3.765	99.2761
3.748	99.2996
3.732	99.2185
3.716	99.3049
3.7	99.2917
3.685	99.3186
3.669	99.2756
3.653	99.321
3.638	99.4084
3.623	99.4138
3.608	99.3308
3.593	99.4045
3.578	99.3591
3.563	99.3747
3.548	99.3518
3.534	99.3943
3.519	99.4119
3.505	99.3103
3.491	99.4143
3.477	99.2673
3.463	99.2029
3.449	99.3147
3.435	99.3552
3.422	99.4177
3.408	99.4534
3.395	99.4079
3.382	99.2908
3.369	99.3889
3.355	99.3318
3.342	99.344
3.33	99.3396
3.317	99.3533
3.304	99.3127
3.292	99.322
3.279	99.3318
3.267	99.3689
3.254	99.2429
3.242	99.2312
3.23	99.1902
3.218	99.115
3.206	99.0632
3.194	98.988
3.182	98.946
3.171	98.8962
3.159	98.7966
3.148	98.6218
3.136	98.5496
3.125	98.448
3.114	98.4675
3.102	98.3689
3.091	98.3074
3.08	98.3953
3.069	98.4294
3.058	98.2165
3.048	98.3162
3.037	98.0837
3.026	98.0271
3.016	97.7234
3.005	97.5369
2.995	97.4695
2.985	97.2195
2.974	96.8787
2.964	96.446
2.954	96.0994
2.944	95.9119
2.934	95.7966
2.924	95.5525
2.914	95.5349
2.904	95.614
2.895	95.9968
2.885	96.3289
2.875	96.6423
2.866	97.1765
2.856	97.5554
2.847	97.8474
2.838	98.0359
2.828	98.321
2.819	98.3943
2.81	98.5603
2.801	98.8513
2.792	99.1882
2.783	99.488
2.774	99.6453
2.765	99.9158
2.756	100.494
2.747	100.782
2.739	101.152
2.73	101.312
2.721	101.544
2.713	101.539
2.704	101.766
2.696	101.994
2.687	102.126
2.679	102.488
2.671	102.383
2.663	102.36
2.654	102.449
2.646	102.425
2.638	102.576
2.63	102.466
2.622	102.658
2.614	102.689
2.606	102.865
2.599	102.715
2.591	102.994
2.583	102.984
2.575	102.902
2.568	103.01
2.56	103.01
2.553	102.885
2.545	103.066
2.538	103.132
2.53	103.162
2.523	103.117
2.515	103.117
2.508	103.16
2.501	103.429
2.494	103.242
2.486	103.431
2.479	103.453
2.472	103.564
2.465	103.691
2.458	103.578
2.451	103.808
2.444	103.635
2.437	103.877
2.43	103.658
2.424	103.625
2.417	103.746
2.41	104.015
2.403	104.023
2.397	104.002
2.39	103.828
2.384	103.929
2.377	104.174
2.37	104.01
2.364	104.017
2.358	104.08
2.351	104.078
2.345	104.103
2.338	104.14
2.332	103.859
2.326	104.094
2.32	104.398
2.313	104.22
2.307	104.453
2.301	104.328
2.295	104.25
2.289	104.353
2.283	104.213
2.277	104.273
2.271	104.226
2.265	104.582
2.259	104.316
2.253	104.453
2.247	104.347
2.241	104.344
2.236	104.465
2.23	104.394
2.224	104.117
2.218	104.285
2.213	104.226
2.207	103.988
2.201	104.679
2.196	104.254
2.19	104.41
2.185	104.441
2.179	104.34
2.174	104.507
2.168	104.39
2.163	104.769
2.157	104.172
2.152	104.566
2.147	104.297
2.141	104.304
2.136	104.222
2.131	104.238
2.126	103.851
2.12	104.375
2.115	104.156
2.11	104.257
2.105	104.297
2.1	104.285
2.095	104.054
2.09	104.254
2.085	104.469
2.079	103.832
