Name: Hornblende Ca2(Fe+2,Mg)4Al(Si7Al)O22(OH,F)2
Type: Mineral
Class: Silicates
Subclass: Inosilicates (Amphibole Group)
Particle Size: fine (Less than 2 micrometers)
Sample No.: hornblen.3
Owner: JHU
Wavelength Range: IR
Origin: Calumet Island, Ottowa River, Canada via the Smithsaonian
Description: Sample was a cluster of several large, deep green
Measurement: transmission
X Units: Wavelength (micrometers)
Y Units: transmittance (percent)
wavelength	value
25.044	58.785
24.339	55.203
23.672	50.939
23.041	43.254
22.442	35.166
21.874	31.473
21.334	34.137
20.82	43.074
20.33	53.398
19.863	44.637
19.416	45.961
18.99	51.773
18.581	54.801
18.19	60.824
17.815	70.43
17.455	76.044
17.109	80.145
16.777	83.324
16.458	85.6
16.15	87.084
15.854	86.685
15.568	81.221
15.292	80.674
15.027	79.929
14.77	78.658
14.521	74.299
14.281	82.403
14.049	85.211
13.824	82.748
13.607	81.246
13.396	74.857
13.191	68.076
12.993	83.185
12.8	88.803
12.614	90.204
12.432	89.02
12.256	85.953
12.084	82.26
11.918	77.985
11.755	74.047
11.598	70.045
11.444	65.473
11.294	60.205
11.149	54.268
11.007	46.58
10.868	39.893
10.733	45.261
10.602	36.741
10.473	34.813
10.348	39.515
10.225	39.935
10.106	35.14
9.989	36.654
9.875	41.479
9.763	48.359
9.654	50.466
9.547	48.507
9.443	47.544
9.341	49.675
9.241	51.52
9.143	47.757
9.047	46.049
8.954	51.202
8.862	56.857
8.772	62.376
8.684	66.902
8.597	70.18
8.513	72.29
8.43	74.126
8.348	75.897
8.268	77.549
8.19	78.935
8.113	80.083
8.037	81.16
7.963	82.402
7.891	83.42
7.819	84.156
7.749	84.96
7.68	85.626
7.613	86.306
7.546	87.026
7.481	87.496
7.417	88.035
7.353	88.413
7.291	88.911
7.23	89.111
7.17	90.136
7.111	90.616
7.053	90.785
6.996	91.226
6.94	91.826
6.885	92.188
6.83	92.432
6.777	92.751
6.724	93.128
6.672	93.584
6.621	93.994
6.571	94.373
6.521	94.633
6.472	94.817
6.424	94.946
6.377	94.972
6.33	94.94
6.284	94.796
6.239	94.498
6.194	93.985
6.15	93.571
6.106	93.812
6.063	94.44
6.021	95.917
5.979	96.874
5.938	96.541
5.898	96.553
5.858	96.802
5.818	97.089
5.779	97.357
5.741	97.621
5.703	97.776
5.666	97.785
5.629	97.937
5.592	98.082
5.556	98.175
5.521	98.359
5.486	98.451
5.451	98.491
5.417	98.651
5.383	98.738
5.35	98.745
5.317	98.805
5.285	98.874
5.252	98.953
5.221	99.111
5.189	99.224
5.158	99.141
5.128	99.094
5.098	99.198
5.068	99.181
5.038	99.326
5.009	99.376
4.98	99.459
4.951	99.451
4.923	99.544
4.895	99.582
4.868	99.613
4.84	99.678
4.814	99.654
4.787	99.73
4.761	99.803
4.734	99.829
4.709	99.865
4.683	99.938
4.658	99.962
4.633	100.02
4.608	100.17
4.584	100.09
4.559	100.12
4.536	100.11
4.512	100.07
4.488	100.1
4.465	100.08
4.442	100.05
4.42	100.07
4.397	100.04
4.375	100.01
4.353	99.98
4.331	99.96
4.309	100.01
4.288	99.991
4.267	99.95
4.246	99.957
4.225	99.901
4.205	99.878
4.184	99.848
4.164	99.87
4.144	99.816
4.124	99.796
4.105	99.782
4.085	99.733
4.066	99.727
4.047	99.685
4.028	99.675
4.009	99.635
3.991	99.547
3.973	99.447
3.954	99.441
3.936	99.545
3.918	99.548
3.901	99.5
3.883	99.395
3.866	99.302
3.849	99.365
3.832	99.315
3.815	99.25
3.798	99.215
3.781	99.3
3.765	99.169
3.748	99.095
3.732	99.084
3.716	99.078
3.7	98.872
3.684	98.895
3.669	98.826
3.653	98.814
3.638	98.713
3.623	98.695
3.608	98.671
3.593	98.637
3.578	98.575
3.563	98.49
3.548	98.373
3.534	98.382
3.519	98.27
3.505	98.145
3.491	98.039
3.477	97.999
3.463	97.936
3.449	97.893
3.436	97.816
3.422	97.653
3.408	97.517
3.395	97.536
3.382	97.578
3.369	97.679
3.355	97.502
3.342	97.475
3.33	97.473
3.317	97.373
3.304	97.414
3.292	97.377
3.279	97.248
3.267	97.172
3.254	97.061
3.242	97.104
3.23	97.061
3.218	96.914
3.206	96.828
3.194	96.758
3.182	96.623
3.171	96.432
3.159	96.303
3.148	96.078
3.136	95.879
3.125	95.84
3.114	95.569
3.102	95.207
3.091	94.963
3.08	94.783
3.069	94.599
3.059	94.252
3.048	93.996
3.037	93.823
3.026	93.634
3.016	93.217
3.005	92.725
2.995	92.209
2.985	91.584
2.974	90.782
2.964	90.087
2.954	89.306
2.944	88.758
2.934	88.531
2.924	88.091
2.914	87.924
2.904	88.008
2.895	88.24
2.885	88.453
2.875	88.476
2.866	88.688
2.856	89.15
2.847	89.43
2.837	89.912
2.828	90.427
2.819	90.914
2.81	91.266
2.801	91.57
2.792	92.075
2.783	92.5
2.774	92.884
2.765	93.05
2.756	93.349
2.747	93.291
2.739	93.271
2.73	90.853
2.721	85.895
2.713	95.183
2.704	95.236
2.696	95.441
2.688	95.556
2.679	95.52
2.671	95.641
2.663	95.387
2.655	95.386
2.646	95.563
2.638	95.594
2.63	95.402
2.622	95.356
2.614	95.372
2.606	95.183
2.599	95.175
2.591	95.258
2.583	95.227
2.575	95.086
2.568	95.079
2.56	95.18
2.553	95.005
2.545	94.898
2.538	95.024
2.53	94.925
2.523	94.759
2.515	94.873
2.508	94.91
2.501	94.724
2.494	94.681
2.486	94.738
2.479	94.666
2.472	94.771
2.465	94.703
2.458	94.683
2.451	94.59
2.444	94.568
2.437	94.595
2.43	94.644
2.424	94.345
2.417	94.433
2.41	94.593
2.403	94.55
2.397	94.314
2.39	94.267
2.384	94.111
2.377	94.355
2.37	94.242
2.364	94.314
2.357	94.449
2.351	94.41
2.345	93.963
2.338	94.039
2.332	93.98
2.326	93.89
2.32	94.367
2.313	94.111
2.307	93.666
2.301	93.922
2.295	94.191
2.289	93.978
2.283	94.218
2.277	94.113
2.271	94.134
2.265	93.996
2.259	94.275
2.253	94.371
2.247	93.957
2.241	94.283
2.236	93.91
2.23	94.025
2.224	93.845
2.218	93.884
2.213	93.914
2.207	93.744
2.201	93.97
2.196	93.89
2.19	93.791
2.185	93.728
2.179	93.906
2.174	93.939
2.168	93.713
2.163	94
2.157	93.97
2.152	93.666
2.147	93.752
2.141	93.621
2.136	93.98
2.131	94.34
2.126	94.394
2.12	93.605
2.115	93.711
2.11	93.73
2.105	93.867
2.1	94.066
2.095	94.222
2.09	94.199
2.084	94
2.079	93.961
