Name: Pyrophyllite Al2Si4010(OH)2
Type: Mineral
Class: Silicates
Subclass: Phyllosilicates (Sheet Silicates); Talk/Pyrophyllite Group
Particle Size: Fine  (Less than 2  Micrometers)
Sample No.: pyroph.1
Owner: JHU
Wavelength Range: IR
Origin: Stanley, North Carolina, USA via Bruce Hemingway, USGS
Description: The sample consisted of clusters of white radiating
Measurement: Transmission
X Units: Wavelength (micrometers)
Y Units: Transmittance (percent)
wavelength	value
25.0442	47.9608
24.3388	39.3319
23.6719	33.0468
23.0407	36.5253
22.4422	22.4628
21.8741	13.7519
21.334	13.0879
20.8199	3.1035
20.33	18.1152
19.8627	39.746
19.4163	19.6992
18.9896	18.5429
18.5812	7.708
18.19	17.121
17.815	26.8886
17.4551	26.122
17.1094	32.0009
16.7772	47.7518
16.4576	57.9374
16.15	63.9266
15.8537	67.1307
15.568	73.2176
15.2925	76.993
15.0265	79.8064
14.7697	81.5203
14.5214	82.8152
14.2814	83.5642
14.0492	84.5061
13.8244	84.5164
13.6067	82.156
13.3957	84.0139
13.1912	84.8733
12.9929	84.4578
12.8004	83.3421
12.6135	81.1057
12.432	74.723
12.2557	65.8367
12.0843	68.3612
11.9176	61.6932
11.7555	63.0926
11.5977	70.3944
11.444	71.4608
11.2944	67.9769
11.1487	62.2855
11.0067	54.9984
10.8682	47.1884
10.7332	35.5414
10.6015	18.5644
10.473	21.8769
10.3476	34.7792
10.2251	32.0986
10.1056	25.9931
9.98873	19.4145
9.87458	13.3086
9.763	7.8525
9.65392	3.5571
9.54724	1.1289
9.44291	1.9907
9.34082	1.4902
9.24091	5.665
9.14312	12.2539
9.04739	20.1533
8.95363	16.4399
8.8618	16.4848
8.77183	23.4648
8.68368	29.0004
8.59727	33.4775
8.51257	37.5771
8.42951	42.0585
8.34807	46.7296
8.26819	51.4015
8.18981	55.619
8.11292	59.3426
8.03745	62.5206
7.96337	65.2059
7.89064	67.3214
7.81924	69.1453
7.74911	70.795
7.68023	72.2684
7.61256	73.6082
7.54608	74.8846
7.48074	76.2244
7.41653	77.3536
7.35341	78.2781
7.29136	79.1465
7.23034	79.7771
7.17033	80.4573
7.11132	81.1004
7.05327	82.0664
6.99616	82.7383
6.93996	83.2508
6.88467	83.7266
6.83024	84.126
6.77667	84.5899
6.72393	85.1453
6.67201	85.6199
6.62089	86.0213
6.57054	86.3943
6.52095	86.6074
6.4721	86.8269
6.42398	87.1123
6.37657	87.2102
6.32986	87.2932
6.28382	87.5178
6.23845	87.5877
6.19373	87.5315
6.14965	87.3819
6.10619	87.3633
6.06334	87.5447
6.02109	88.1211
5.97942	88.7654
5.93832	89.1834
5.89778	89.4004
5.8578	89.5183
5.81835	89.4109
5.77943	89.1455
5.74103	89.2695
5.70314	89.4197
5.66574	89.625
5.62883	89.711
5.5924	89.8025
5.55644	89.8985
5.52093	90.0078
5.48588	90.0007
5.45127	90.0108
5.41709	89.9871
5.38334	89.6892
5.35	88.9746
5.31708	88.1941
5.28456	88.4314
5.25243	89.5076
5.2207	90.0723
5.18934	90.46
5.15836	90.8748
5.12775	91.0886
5.09749	91.0925
5.0676	91.1729
5.03805	91.2459
5.00884	91.4617
4.97998	91.6963
4.95144	92.1231
4.92322	92.4453
4.89533	92.6677
4.86775	92.9006
4.84048	93.0305
4.81351	93.0828
4.78684	93.2307
4.76047	93.2952
4.73439	93.3494
4.70859	93.3762
4.68306	93.4617
4.65782	93.4832
4.63284	93.5896
4.60814	93.6423
4.58369	93.637
4.5595	93.6399
4.53557	93.6594
4.51188	93.6877
4.48845	93.7634
4.46525	93.7561
4.44229	93.7673
4.41957	93.8508
4.39708	93.8601
4.37481	93.8699
4.35277	93.8909
4.33096	93.8923
4.30935	93.9338
4.28797	93.8865
4.26679	93.9348
4.24583	93.9656
4.22506	93.9695
4.2045	93.9685
4.18414	93.9553
4.16398	93.9534
4.14401	93.9514
4.12423	93.9299
4.10464	93.947
4.08523	93.9065
4.066	93.885
4.04696	93.8928
4.02809	93.9226
4.0094	93.864
3.99088	93.8909
3.97253	93.9124
3.95435	93.907
3.93634	93.9104
3.91848	93.8943
3.90079	93.967
3.88326	93.9119
3.86589	93.9045
3.84867	93.9255
3.8316	93.9187
3.81468	93.9177
3.79791	93.9294
3.78129	93.8713
3.76482	93.8425
3.74848	93.8533
3.73229	93.8054
3.71624	93.7229
3.70032	93.717
3.68454	93.6355
3.6689	93.5427
3.65338	93.5295
3.638	93.5554
3.62275	93.4631
3.60762	93.406
3.59262	93.3948
3.57775	93.2795
3.56299	93.2288
3.54836	93.157
3.53385	93.1663
3.51945	93.0139
3.50517	92.9456
3.49101	92.8806
3.47696	92.7717
3.46303	92.7224
3.4492	92.6038
3.43549	92.5022
3.42188	92.2947
3.40838	92.0315
3.39499	92.0764
3.38171	91.9197
3.36852	91.8049
3.35544	91.7698
3.34246	91.698
3.32958	91.553
3.3168	91.4314
3.30411	91.3479
3.29153	91.2991
3.27903	91.135
3.26664	91.0628
3.25433	90.9827
3.24212	90.7542
3.23	90.5916
3.21797	90.5256
3.20603	90.3562
3.19418	90.1746
3.18241	90.0603
3.17074	89.9705
3.15914	89.8025
3.14763	89.7703
3.13621	89.6238
3.12487	89.4783
3.11361	89.4363
3.10243	89.2547
3.09133	89.0447
3.0803	89.0242
3.06936	88.9539
3.0585	88.7966
3.04771	88.7019
3.037	88.6443
3.02636	88.4617
3.0158	88.3025
3.00531	88.1111
2.99489	87.8963
2.98454	87.7498
2.97427	87.4138
2.96407	87.2634
2.95393	87.1795
2.94387	87.0759
2.93387	86.908
2.92394	86.8562
2.91408	86.7634
2.90429	86.8435
2.89456	86.8836
2.88489	86.9295
2.87529	86.9773
2.86576	86.9343
2.85628	87.2312
2.84687	87.2781
2.83752	87.6062
2.82823	87.7576
2.81901	88.0174
2.80984	88.1502
2.80073	88.3552
2.79168	88.5857
2.78269	88.4295
2.77376	88.7771
2.76488	88.5623
2.75606	88.406
2.7473	86.4187
2.73859	84.2429
2.72994	71.7274
2.72134	16.3769
2.7128	64.0662
2.70431	80.5516
2.69587	85.8601
2.68748	88.3758
2.67915	89.7195
2.67087	90.3318
2.66264	90.5789
2.65446	91.0388
2.64633	91.2703
2.63825	91.4138
2.63021	91.49
2.62223	91.7185
2.6143	91.4021
2.60641	91.3455
2.59857	91.4685
2.59078	91.6365
2.58304	91.7966
2.57534	91.8591
2.56768	91.7752
2.56008	91.9685
2.55251	91.9705
2.54499	91.8865
2.53752	92.0623
2.53009	91.9802
2.5227	91.9509
2.51536	91.9431
2.50806	91.8865
2.5008	92.1502
2.49358	92.0564
2.4864	91.988
2.47927	91.9627
2.47218	92.1502
2.46512	92.1443
2.45811	92.158
2.45114	92.1482
2.4442	92.1345
2.43731	92.113
2.43045	92.0017
2.42363	91.9392
2.41685	92.2185
2.41011	92.1677
2.40341	92.1013
2.39674	92.0642
2.39011	92.0095
2.38352	92.0642
2.37696	92.2888
2.37044	92.3474
2.36395	92.2654
2.35751	92.072
2.35109	92.367
2.34471	92.4177
2.33836	92.1502
2.33205	92.3162
2.32578	92.3377
2.31953	92.1716
2.31332	92.1814
2.30714	92.3064
2.301	92.406
2.29489	92.0232
2.28881	92.2888
2.28276	92.2986
2.27675	92.2986
2.27076	92.2849
2.26481	92.117
2.25889	92.5271
2.253	92.4607
2.24714	92.4255
2.24131	92.0349
2.23551	92.4412
2.22974	92.2693
2.224	92.2459
2.21829	92.2224
2.21261	92.5935
2.20696	91.9841
2.20134	92.3826
2.19574	92.1834
2.19018	92.2185
2.18464	92.3513
2.17913	91.8318
2.17365	91.7341
2.16819	91.6209
2.16277	91.5857
2.15737	92.0505
2.15199	92.2224
2.14665	91.8435
2.14133	92.0076
2.13603	91.9451
2.13077	91.8045
2.12552	92.0701
2.12031	92.113
2.11512	92.1248
2.10995	92.2068
2.10481	91.8787
2.0997	92.1716
2.09461	91.867
2.08954	92.1638
2.0845	91.4099
2.07948	92.0623
