Name: Tremolite Ca2(Mg, Fe+2)5Si8O22(OH)2
Type: Mineral
Class: Silicates
Subclass: Inosilicates (Chain Silicates); (Amphibole Group)
Particle Size: Coarse  (75 - 250  Micrometers)
Sample No.: tremol.1
Owner: JHU
Wavelength Range: IR
Origin: Balmat, New York, USA via Bruce Hemingway, USGS
Description: The sample consisted of 2-3 cm long x 1-2 cm wide mass
Measurement: Bidirectional reflectance
X Units: Wavelength (micrometers)
Y Units: Reflectance (percent)
wavelength	value
25.0442	3.6084
24.3388	3.3057
23.6719	4.2131
23.0407	4.3428
22.4422	6.6772
21.8741	7.8164
21.334	6.0871
20.8199	5.9399
20.33	5.9328
19.8627	6.7436
19.4163	6.9241
18.9896	8.0815
18.5812	9.3547
18.19	7.9167
17.815	7.209
17.4551	6.6098
17.1094	4.4668
16.7772	2.279
16.4576	0.8906
16.15	0.793
15.8537	1.0066
15.568	1.2522
15.2925	1.2698
15.0265	1.468
14.7697	1.678
14.5214	2.4582
14.2814	1.5071
14.0492	1.1621
13.8244	1.3474
13.6067	1.4614
13.3957	1.7419
13.1912	2.6223
12.9929	2.2305
12.8004	1.2297
12.6135	1.3955
12.432	1.5432
12.2557	1.6916
12.0843	1.7686
11.9176	1.8498
11.7555	1.9377
11.5977	2.0425
11.444	2.1995
11.2944	2.374
11.1487	2.6013
11.0067	3.0349
10.8682	3.8652
10.7332	2.6938
10.6015	3.6274
10.473	5.2463
10.3476	6.1089
10.2251	7.0217
10.1056	8.4118
9.98873	8.1836
9.87458	7.2112
9.763	5.1145
9.65392	5.1374
9.54724	4.9089
9.44291	5.1963
9.34082	6.0063
9.24091	7.0554
9.14312	6.6799
9.04739	5.4797
8.95363	5.0539
8.8618	5.0898
8.77183	5.9497
8.68368	6.001
8.59727	4.6599
8.51257	3.1201
8.42951	2.0774
8.34807	1.2593
8.26819	0.7056
8.18981	0.4404
8.11292	0.4248
8.03745	0.5137
7.96337	0.6331
7.89064	0.7668
7.81924	0.8853
7.74911	0.947
7.68023	1.0466
7.61256	1.1604
7.54608	1.2297
7.48074	1.1958
7.41653	1.2353
7.35341	1.2854
7.29136	1.407
7.23034	1.5295
7.17033	1.6804
7.11132	1.8132
7.05327	1.9644
6.99616	2.0891
6.93996	2.2412
6.88467	2.3484
6.83024	2.3694
6.77667	2.4465
6.72393	2.5098
6.67201	2.582
6.62089	2.759
6.57054	3.0017
6.52095	3.05
6.4721	2.8899
6.42398	2.7424
6.37657	2.5542
6.32986	2.3074
6.28382	2.0408
6.23845	1.8577
6.19373	1.7717
6.14965	1.7937
6.10619	1.8643
6.06334	2.0071
6.02109	2.2134
5.97942	2.1924
5.93832	1.9558
5.89778	1.884
5.8578	2.0237
5.81835	2.1599
5.77943	2.25
5.74103	2.3769
5.70314	2.4402
5.66574	2.3865
5.62883	2.4001
5.5924	2.5056
5.55644	2.6055
5.52093	2.6731
5.48588	2.6438
5.45127	2.55
5.41709	2.7905
5.38334	2.957
5.35	2.9163
5.31708	2.8625
5.28456	3.0767
5.25243	3.1526
5.2207	3.4116
5.18934	3.5979
5.15836	3.2871
5.12775	3.0571
5.09749	3.1614
5.0676	3.2185
5.03805	3.3047
5.00884	3.4956
4.97998	3.709
4.95144	3.8962
4.92322	4.133
4.89533	4.3396
4.86775	4.4138
4.84048	4.4878
4.81351	4.4714
4.78684	4.5649
4.76047	4.9626
4.73439	5.3782
4.70859	5.5869
4.68306	5.7934
4.65782	6.1511
4.63284	6.4944
4.60814	6.8784
4.58369	7.1504
4.5595	7.4468
4.53557	7.8127
4.51188	8.0586
4.48845	8.3479
4.46525	8.5713
4.44229	8.7317
4.41957	8.8318
4.39708	8.9074
4.37481	8.9573
4.35277	8.9895
4.33096	9.0075
4.30935	9.0266
4.28797	9.0505
4.26679	9.0881
4.24583	9.1264
4.22506	9.1594
4.2045	9.1928
4.18414	9.2024
4.16398	9.2292
4.14401	9.2387
4.12423	9.2702
4.10464	9.3093
4.08523	9.363
4.066	9.407
4.04696	9.4521
4.02809	9.4743
4.0094	9.5085
3.99088	9.5271
3.97253	9.5442
3.95435	9.5901
3.93634	9.6347
3.91848	9.667
3.90079	9.7126
3.88326	9.7624
3.86589	9.7678
3.84867	9.7956
3.8316	9.8149
3.81468	9.8293
3.79791	9.8362
3.78129	9.8642
3.76482	9.8706
3.74848	9.8923
3.73229	9.9104
3.71624	9.9114
3.70032	9.9018
3.68454	9.8864
3.6689	9.885
3.65338	9.8882
3.638	9.9062
3.62275	9.9214
3.60762	9.9304
3.59262	9.9394
3.57775	9.9414
3.56299	9.9184
3.54836	9.8923
3.53385	9.8464
3.51945	9.7712
3.50517	9.6316
3.49101	9.6643
3.47696	9.6728
3.46303	9.6645
3.4492	9.6352
3.43549	9.542
3.42188	9.3347
3.40838	9.1748
3.39499	9.0837
3.38171	8.8894
3.36852	8.7695
3.35544	8.5097
3.34246	8.2903
3.32958	8.6638
3.3168	8.6223
3.30411	8.6028
3.29153	8.9407
3.27903	9.5234
3.26664	9.6772
3.25433	9.7002
3.24212	9.657
3.23	9.5893
3.21797	9.5788
3.20603	9.4848
3.19418	9.3017
3.18241	8.9751
3.17074	8.7449
3.15914	9.0234
3.14763	9.2658
3.13621	9.3728
3.12487	9.3545
3.11361	9.3017
3.10243	9.3257
3.09133	9.3169
3.0803	9.2275
3.06936	9.2094
3.0585	9.1677
3.04771	9.0757
3.037	9.0456
3.02636	9.05
3.0158	8.9817
3.00531	8.9067
2.99489	8.8535
2.98454	8.7463
2.97427	8.6135
2.96407	8.6494
2.95393	8.8232
2.94387	8.8987
2.93387	8.9309
2.92394	8.9099
2.91408	8.8774
2.90429	8.831
2.89456	8.8203
2.88489	8.8845
2.87529	8.9043
2.86576	8.8838
2.85628	8.9016
2.84687	8.9316
2.83752	8.997
2.82823	8.9944
2.81901	9.0364
2.80984	9.0212
2.80073	9.1242
2.79168	9.0537
2.78269	8.9875
2.77376	8.7168
2.76488	8.2529
2.75606	8.5832
2.7473	8.635
2.73859	7.3611
2.72994	4.115
2.72134	2.4175
2.7128	6.9651
2.70431	7.9045
2.69587	7.2395
2.68748	8.2375
2.67915	9.3181
2.67087	9.7871
2.66264	10.0998
2.65446	10.1089
2.64633	10.0102
2.63825	9.8874
2.63021	9.8252
2.62223	9.7849
2.6143	9.7575
2.60641	9.5757
2.59857	9.5927
2.59078	9.5324
2.58304	9.5461
2.57534	9.4712
2.56768	9.1987
2.56008	9.1416
2.55251	9.3379
2.54499	9.5405
2.53752	9.5752
2.53009	9.5661
2.5227	9.4912
2.51536	9.1308
2.50806	9.2241
2.5008	9.1582
2.49358	9.0171
2.4864	9
2.47927	8.8442
2.47218	8.8823
2.46512	8.7446
2.45811	8.6836
2.45114	9.0007
2.4442	8.8144
2.43731	9.0522
2.43045	9.3852
2.42363	9.2812
2.41685	8.917
2.41011	9.2124
2.40341	9.2407
2.39674	8.2822
2.39011	7.3818
2.38352	6.956
2.37696	7.7944
2.37044	8.6116
2.36395	9.105
2.35751	9.4341
2.35109	9.5014
2.34471	9.8183
2.33836	9.8603
2.33205	9.5029
2.32578	8.2656
2.31953	6.4975
2.31332	6.1401
2.30714	6.7536
2.301	6.604
2.29489	6.6484
2.28881	7.7683
2.28276	8.0403
2.27675	8.5102
2.27076	8.9885
2.26481	9.5168
2.25889	9.917
2.253	10.0874
2.24714	10.2065
2.24131	10.2436
2.23551	10.3523
2.22974	10.4009
2.224	10.3667
2.21829	10.386
2.21261	10.3952
2.20696	10.3889
2.20134	10.3606
2.19574	10.394
2.19018	10.3813
2.18464	10.3774
2.17913	10.3144
2.17365	10.3686
2.16819	10.4018
2.16277	10.4048
2.15737	10.3564
2.15199	10.2466
2.14665	10.1965
2.14133	10.2627
2.13603	10.2812
2.13077	10.0879
2.12552	10.1721
2.12031	10.0783
2.11512	10.1338
2.10995	9.9297
2.10481	10.2925
2.0997	10.4426
2.09461	10.4895
2.08954	10.5285
2.0845	10.4277
2.07948	10.5683
