Name: Augite (Ca,Na)(Mg,Fe,Al,Ti)(Si,Al)2O6
Type: Mineral
Class: Silicates
Subclass: Inosilicates (Pyroxene Group - single chain)
Particle Size: Fine (less than 2 Micrometers)
Sample No.: augite.1
Owner: JHU
Wavelength Range: IR
Origin: Sample from Monteagle Township, Hostings Co., Ontario,
Description: Sample consisted of  fragments of well-formed crystal(s),
Measurement: Transmission
X Units: Wavelength (micrometers)
Y Units: Transmittance (percent)
wavelength	value
25.0442	47.328
24.3388	52.5311
23.6719	53.6503
23.0407	45.4139
22.4422	34.0683
21.8741	28.0956
21.334	26.5898
20.8199	32.8944
20.33	38.578
19.8627	35.579
19.4163	35.1347
18.9896	38.8222
18.5812	47.037
18.19	57.1883
17.815	65.6795
17.4551	71.8953
17.1094	76.2391
16.7772	78.032
16.4576	76.825
16.15	70.5506
15.8537	62.766
15.568	74.7249
15.2925	81.9764
15.0265	77.6019
14.7697	78.055
14.5214	84.3167
14.2814	85.7366
14.0492	85.5642
13.8244	84.7971
13.6067	82.5398
13.3957	79.3162
13.1912	76.4339
12.9929	72.8318
12.8004	69.4813
12.6135	66.2254
12.432	61.7518
12.2557	56.1473
12.0843	49.5414
11.9176	40.8778
11.7555	30.8578
11.5977	26.1767
11.444	27.6796
11.2944	31.9682
11.1487	34.1747
11.0067	34.3368
10.8682	35.7616
10.7332	43.2401
10.6015	41.6737
10.473	33.5111
10.3476	30.2314
10.2251	34.8417
10.1056	40.205
9.98873	45.0731
9.87458	47.3134
9.763	44.9962
9.65392	39.6561
9.54724	32.1838
9.44291	24.4819
9.34082	23.4472
9.24091	27.017
9.14312	31.0595
9.04739	39.3217
8.95363	48.3031
8.8618	54.5008
8.77183	60.3524
8.68368	64.6776
8.59727	68.1007
8.51257	70.8087
8.42951	73.3338
8.34807	75.8016
8.26819	78.0154
8.18981	79.9051
8.11292	81.493
8.03745	82.951
7.96337	84.4473
7.89064	85.6282
7.81924	86.461
7.74911	87.3928
7.68023	88.1868
7.61256	88.9231
7.54608	89.699
7.48074	90.2464
7.41653	90.7256
7.35341	90.9959
7.29136	91.241
7.23034	91.1455
7.17033	91.637
7.11132	91.7341
7.05327	91.531
6.99616	91.8594
6.93996	92.4951
6.88467	92.7761
6.83024	92.999
6.77667	93.2451
6.72393	93.3828
6.67201	93.6914
6.62089	94.0098
6.57054	94.208
6.52095	94.2463
6.4721	94.4744
6.42398	94.7034
6.37657	94.8552
6.32986	94.7656
6.28382	94.7102
6.23845	94.4158
6.19373	93.7654
6.14965	93.0017
6.10619	93.1052
6.06334	93.6328
6.02109	95.1768
5.97942	96.3879
5.93832	96.418
5.89778	96.2888
5.8578	96.2175
5.81835	96.4099
5.77943	96.4075
5.74103	96.4141
5.70314	96.3689
5.66574	96.1885
5.62883	96.1113
5.5924	95.9893
5.55644	95.822
5.52093	95.7561
5.48588	95.5925
5.45127	95.4668
5.41709	95.3347
5.38334	95.1084
5.35	95.0117
5.31708	94.8301
5.28456	94.7048
5.25243	94.5886
5.2207	94.4463
5.18934	94.3005
5.15836	94.0908
5.12775	93.8943
5.09749	93.7683
5.0676	93.6982
5.03805	93.6951
5.00884	93.6113
4.97998	93.4766
4.95144	93.3611
4.92322	93.281
4.89533	93.1719
4.86775	93.0681
4.84048	93.0266
4.81351	92.9734
4.78684	92.875
4.76047	92.8223
4.73439	92.7246
4.70859	92.6502
4.68306	92.5154
4.65782	92.4177
4.63284	92.3572
4.60814	92.4004
4.58369	92.1316
4.5595	92.0166
4.53557	91.8994
4.51188	91.75
4.48845	91.6123
4.46525	91.4434
4.44229	91.322
4.41957	91.1629
4.39708	91.0105
4.37481	90.9636
4.35277	90.7175
4.33096	90.6204
4.30935	90.4714
4.28797	90.3518
4.26679	90.2092
4.24583	90.0515
4.22506	89.9363
4.2045	89.7429
4.18414	89.6228
4.16398	89.4685
4.14401	89.2971
4.12423	89.2175
4.10464	89.0491
4.08523	88.9026
4.066	88.7454
4.04696	88.6282
4.02809	88.5164
4.0094	88.325
3.99088	88.0974
3.97253	87.9744
3.95435	87.8557
3.93634	87.7883
3.91848	87.6052
3.90079	87.5198
3.88326	87.3494
3.86589	87.1443
3.84867	87.0593
3.8316	86.929
3.81468	86.8367
3.79791	86.6707
3.78129	86.4998
3.76482	86.3362
3.74848	86.2381
3.73229	86.1189
3.71624	85.8821
3.70032	85.7312
3.68454	85.6179
3.6689	85.4348
3.65338	85.3582
3.638	85.1922
3.62275	85.075
3.60762	84.8802
3.59262	84.7664
3.57775	84.6336
3.56299	84.3885
3.54836	84.2522
3.53385	84.0608
3.51945	83.9627
3.50517	83.8338
3.49101	83.5935
3.47696	83.4646
3.46303	83.2732
3.4492	83.1101
3.43549	83.0335
3.42188	82.8719
3.40838	82.5764
3.39499	82.533
3.38171	82.5276
3.36852	82.4607
3.35544	82.1453
3.34246	82.0281
3.32958	81.8499
3.3168	81.7849
3.30411	81.7224
3.29153	81.5467
3.27903	81.3382
3.26664	81.199
3.25433	80.9744
3.24212	80.9085
3.23	80.7351
3.21797	80.6272
3.20603	80.4539
3.19418	80.243
3.18241	80.0935
3.17074	79.8982
3.15914	79.6468
3.14763	79.4124
3.13621	79.1014
3.12487	78.8108
3.11361	78.5994
3.10243	78.2342
3.09133	77.8636
3.0803	77.5467
3.06936	77.2425
3.0585	76.9256
3.04771	76.6561
3.037	76.3592
3.02636	75.9969
3.0158	75.5984
3.00531	75.0564
2.99489	74.4022
2.98454	73.6609
2.97427	72.7127
2.96407	71.8709
2.95393	71.0799
2.94387	70.4031
2.93387	69.8963
2.92394	69.4832
2.91408	69.2596
2.90429	69.199
2.89456	69.2869
2.88489	69.451
2.87529	69.6024
2.86576	69.8533
2.85628	70.0897
2.84687	70.3524
2.83752	70.6639
2.82823	71.0975
2.81901	71.616
2.80984	71.8836
2.80073	72.2557
2.79168	72.6658
2.78269	73.1385
2.77376	73.3524
2.76488	73.824
2.75606	74.242
2.7473	74.5193
2.73859	74.6648
2.72994	74.5115
2.72134	74.5428
2.7128	74.5047
2.70431	74.7674
2.69587	74.8719
2.68748	74.7664
2.67915	74.6717
2.67087	74.7703
2.66264	74.4695
2.65446	74.3065
2.64633	74.1131
2.63825	74.1375
2.63021	74.119
2.62223	73.8943
2.6143	73.7986
2.60641	73.7869
2.59857	73.574
2.59078	73.5164
2.58304	73.4647
2.57534	73.2986
2.56768	73.0438
2.56008	73.0897
2.55251	72.7733
2.54499	72.6922
2.53752	72.7068
2.53009	72.5662
2.5227	72.3123
2.51536	72.3045
2.50806	72.1541
2.5008	71.9608
2.49358	72.0955
2.4864	72.0115
2.47927	71.6268
2.47218	71.5467
2.46512	71.6033
2.45811	71.5701
2.45114	71.2986
2.4442	70.9471
2.43731	71.0154
2.43045	70.9158
2.42363	70.8026
2.41685	70.6795
2.41011	70.7889
2.40341	70.4608
2.39674	70.4178
2.39011	70.2264
2.38352	70.2049
2.37696	70.1658
2.37044	70.1502
2.36395	69.8983
2.35751	69.8865
2.35109	69.783
2.34471	69.7303
2.33836	69.6248
2.33205	69.3612
2.32578	69.4237
2.31953	69.4217
2.31332	69.3065
2.30714	69.0858
2.301	68.9686
2.29489	68.8983
2.28881	68.8826
2.28276	68.8045
2.27675	68.8592
2.27076	68.6483
2.26481	68.6912
2.25889	68.328
2.253	68.3612
2.24714	68.3377
2.24131	68.369
2.23551	68.0936
2.22974	68.0408
2.224	67.9393
2.21829	67.9139
2.21261	67.6658
2.20696	67.4764
2.20134	67.9608
2.19574	67.619
2.19018	67.6112
2.18464	67.4549
2.17913	67.3201
2.17365	67.4862
2.16819	67.5701
2.16277	67.3436
2.15737	67.2342
2.15199	67.033
2.14665	67.0076
2.14133	67.0467
2.13603	66.9178
2.13077	66.8397
2.12552	66.949
2.12031	66.9764
2.11512	66.6951
2.10995	66.66
2.10481	66.8162
2.0997	66.7694
2.09461	66.828
2.08954	66.5858
2.0845	66.4569
2.07948	66.5194
