Name: Chabazite CaAl2Si4O12.6H2O
Type: Mineral
Class: Silicates
Subclass: Tectosilicates (Framework silicates) (Zeolite Group)
Particle Size: Solid (cleavage face)
Sample No.: chabazite.1
Owner: JHU
Wavelength Range: IR
Origin: W. J. Ehmann #40; from Kyogle, N.S.W., Australia.
Description: The sample was a white crystalline mass.
Measurement: Bidirectional reflectance
X Units: Wavelength (micrometers)
Y Units: Reflectance (percent)
wavelength	value
25.0442	8.5097
24.3388	8.2871
23.6719	7.5571
23.0407	6.249
22.4422	5.9314
21.8741	5.9104
21.334	5.9309
20.8199	5.7388
20.33	5.5522
19.8627	6.0969
19.4163	7.1518
18.9896	6.9448
18.5812	4.3516
18.19	3.6355
17.815	3.741
17.4551	3.9285
17.1094	4.1277
16.7772	4.3081
16.4576	4.5315
16.15	4.8218
15.8537	5.2439
15.568	5.4621
15.2925	4.7776
15.0265	3.4184
14.7697	3.0681
14.5214	3.1018
14.2814	3.1531
14.0492	3.1904
13.8244	3.1326
13.6067	3.0124
13.3957	2.8586
13.1912	2.8569
12.9929	2.7839
12.8004	2.6851
12.6135	2.7322
12.432	2.8882
12.2557	3.1128
12.0843	3.3137
11.9176	3.5605
11.7555	3.758
11.5977	3.9851
11.444	4.3391
11.2944	4.5442
11.1487	4.8249
11.0067	5.1814
10.8682	5.6648
10.7332	6.2407
10.6015	7.0869
10.473	7.9236
10.3476	8.633
10.2251	9.3674
10.1056	10.395
9.98873	11.4797
9.87458	12.5962
9.763	13.7483
9.65392	14.7248
9.54724	14.9226
9.44291	13.5803
9.34082	11.0981
9.24091	9.072
9.14312	7.9533
9.04739	7.3284
8.95363	6.9433
8.8618	6.7529
8.77183	6.6797
8.68368	6.6482
8.59727	6.6465
8.51257	6.6033
8.42951	6.1267
8.34807	4.6228
8.26819	2.2849
8.18981	0.8459
8.11292	0.4832
8.03745	0.5046
7.96337	0.6238
7.89064	0.7573
7.81924	0.8909
7.74911	1.0098
7.68023	1.1357
7.61256	1.24
7.54608	1.3523
7.48074	1.4524
7.41653	1.5581
7.35341	1.6572
7.29136	1.7375
7.23034	1.7981
7.17033	1.8635
7.11132	1.9812
7.05327	2.061
6.99616	2.0991
6.93996	2.1228
6.88467	2.1497
6.83024	2.1526
6.77667	2.1492
6.72393	2.1648
6.67201	2.1726
6.62089	2.1738
6.57054	2.166
6.52095	2.1746
6.4721	2.1753
6.42398	2.1655
6.37657	2.1982
6.32986	2.2292
6.28382	2.2737
6.23845	2.3347
6.19373	2.4126
6.14965	2.4565
6.10619	2.3621
6.06334	2.136
6.02109	1.9358
5.97942	1.7961
5.93832	1.7471
5.89778	1.779
5.8578	1.845
5.81835	1.8921
5.77943	1.9521
5.74103	1.9932
5.70314	2.0261
5.66574	2.0588
5.62883	2.0786
5.5924	2.1164
5.55644	2.1389
5.52093	2.1543
5.48588	2.1689
5.45127	2.1907
5.41709	2.2085
5.38334	2.2295
5.35	2.2393
5.31708	2.2656
5.28456	2.2754
5.25243	2.2798
5.2207	2.2998
5.18934	2.3081
5.15836	2.3232
5.12775	2.3359
5.09749	2.3459
5.0676	2.3633
5.03805	2.3706
5.00884	2.3743
4.97998	2.385
4.95144	2.397
4.92322	2.4111
4.89533	2.416
4.86775	2.4219
4.84048	2.4358
4.81351	2.448
4.78684	2.4543
4.76047	2.4622
4.73439	2.4651
4.70859	2.4719
4.68306	2.4844
4.65782	2.4902
4.63284	2.4995
4.60814	2.501
4.58369	2.509
4.5595	2.5166
4.53557	2.519
4.51188	2.5322
4.48845	2.5371
4.46525	2.5522
4.44229	2.5444
4.41957	2.5515
4.39708	2.5557
4.37481	2.5632
4.35277	2.5698
4.33096	2.5757
4.30935	2.5803
4.28797	2.581
4.26679	2.5945
4.24583	2.5945
4.22506	2.602
4.2045	2.6057
4.18414	2.6118
4.16398	2.6147
4.14401	2.6291
4.12423	2.6255
4.10464	2.6406
4.08523	2.6426
4.066	2.6631
4.04696	2.6714
4.02809	2.6687
4.0094	2.6746
3.99088	2.6819
3.97253	2.6897
3.95435	2.6907
3.93634	2.6924
3.91848	2.7012
3.90079	2.7151
3.88326	2.7165
3.86589	2.7231
3.84867	2.7246
3.8316	2.7305
3.81468	2.7278
3.79791	2.7349
3.78129	2.7439
3.76482	2.7544
3.74848	2.7537
3.73229	2.7534
3.71624	2.7666
3.70032	2.771
3.68454	2.7756
3.6689	2.782
3.65338	2.7832
3.638	2.7974
3.62275	2.8049
3.60762	2.8052
3.59262	2.8039
3.57775	2.8232
3.56299	2.8264
3.54836	2.8435
3.53385	2.8354
3.51945	2.853
3.50517	2.8672
3.49101	2.8689
3.47696	2.8772
3.46303	2.8772
3.4492	2.8813
3.43549	2.8889
3.42188	2.9087
3.40838	2.9043
3.39499	2.9099
3.38171	2.9072
3.36852	2.9065
3.35544	2.917
3.34246	2.9133
3.32958	2.9309
3.3168	2.9331
3.30411	2.9346
3.29153	2.9556
3.27903	2.959
3.26664	2.9709
3.25433	2.9731
3.24212	2.9814
3.23	2.9858
3.21797	2.9949
3.20603	3.0002
3.19418	3.0007
3.18241	3.0124
3.17074	3.0127
3.15914	3.0183
3.14763	3.0168
3.13621	3.0161
3.12487	3.0144
3.11361	3.0056
3.10243	3.0068
3.09133	2.9812
3.0803	2.9753
3.06936	2.9495
3.0585	2.9397
3.04771	2.9307
3.037	2.9294
3.02636	2.9184
3.0158	2.917
3.00531	2.9089
2.99489	2.8909
2.98454	2.8696
2.97427	2.8518
2.96407	2.8225
2.95393	2.7905
2.94387	2.7751
2.93387	2.7344
2.92394	2.7087
2.91408	2.6716
2.90429	2.6518
2.89456	2.6374
2.88489	2.6069
2.87529	2.5791
2.86576	2.5469
2.85628	2.5332
2.84687	2.5139
2.83752	2.4734
2.82823	2.4573
2.81901	2.4375
2.80984	2.3977
2.80073	2.3511
2.79168	2.3118
2.78269	2.2607
2.77376	2.2258
2.76488	2.1909
2.75606	2.1641
2.7473	2.1746
2.73859	2.1948
2.72994	2.2432
2.72134	2.2834
2.7128	2.3323
2.70431	2.373
2.69587	2.3987
2.68748	2.4382
2.67915	2.4539
2.67087	2.4668
2.66264	2.4971
2.65446	2.5154
2.64633	2.5276
2.63825	2.5388
2.63021	2.5339
2.62223	2.5659
2.6143	2.5696
2.60641	2.5635
2.59857	2.5859
2.59078	2.6086
2.58304	2.5957
2.57534	2.6121
2.56768	2.6326
2.56008	2.6333
2.55251	2.6296
2.54499	2.6365
2.53752	2.6482
2.53009	2.6484
2.5227	2.6533
2.51536	2.6555
2.50806	2.6663
2.5008	2.6736
2.49358	2.6748
2.4864	2.6641
2.47927	2.6848
2.47218	2.667
2.46512	2.6858
2.45811	2.6855
2.45114	2.6968
2.4442	2.7065
2.43731	2.7041
2.43045	2.6999
2.42363	2.7014
2.41685	2.6987
2.41011	2.7185
2.40341	2.7285
2.39674	2.7295
2.39011	2.7219
2.38352	2.7302
2.37696	2.7385
2.37044	2.7139
2.36395	2.7129
2.35751	2.7226
2.35109	2.7446
2.34471	2.7219
2.33836	2.7305
2.33205	2.7285
2.32578	2.7358
2.31953	2.7143
2.31332	2.7158
2.30714	2.7143
2.301	2.7256
2.29489	2.7485
2.28881	2.7341
2.28276	2.7544
2.27675	2.7295
2.27076	2.7617
2.26481	2.75
2.25889	2.769
2.253	2.7573
2.24714	2.7451
2.24131	2.7685
2.23551	2.7637
2.22974	2.7583
2.224	2.7419
2.21829	2.7397
2.21261	2.7642
2.20696	2.7588
2.20134	2.7417
2.19574	2.748
2.19018	2.7734
2.18464	2.751
2.17913	2.7412
2.17365	2.7417
2.16819	2.7788
2.16277	2.7698
2.15737	2.7488
2.15199	2.7612
2.14665	2.7229
2.14133	2.7334
2.13603	2.7307
2.13077	2.7397
2.12552	2.7375
2.12031	2.7146
2.11512	2.7236
2.10995	2.7339
2.10481	2.7246
2.0997	2.7446
2.09461	2.7546
2.08954	2.7353
2.0845	2.7427
2.07948	2.6997
