Name: ALHA 77294
Type: Stony Meteorites
Class: Ordinary Chondrite
Subclass: H4
Particle Size: 0-75 micrometers
Sample No.: ALHA 77294
Owner: JHU
Origin: Meteorite found in Antarctica in 1977.  Smithsonian sample No. USNM
Description: None.
Measurement: Bidirectional reflectance
X Units: Wavelength (micrometers)
Y Units: Reflectance (percent)
wavelength	value
25.044	1.2444
24.339	1.1157
23.672	1.1279
23.041	0.9199
22.442	0.9814
21.874	0.9111
21.334	0.8599
20.82	0.9324
20.33	1.1008
19.863	1.1492
19.416	1.1677
18.99	1.0884
18.581	0.9829
18.19	0.978
17.815	0.8962
17.455	0.9075
17.109	0.874
16.777	0.8013
16.458	0.7964
16.15	0.8022
15.854	0.7747
15.568	0.6631
15.292	0.623
15.027	0.7703
14.77	0.8477
14.521	0.9265
14.281	1.1067
14.049	1.1658
13.824	1.0989
13.607	1.1956
13.396	1.3647
13.191	1.5918
12.993	1.7231
12.8	1.783
12.614	1.7693
12.432	1.7422
12.256	1.6343
12.084	1.3264
11.918	1.0715
11.755	1.0542
11.598	1.0789
11.444	1.2446
11.294	1.2852
11.149	1.2249
11.007	1.2031
10.868	1.2666
10.733	1.3267
10.602	1.3284
10.473	1.2041
10.348	1.1038
10.225	1.0884
10.106	1.0352
9.9887	0.9824
9.8746	0.9626
9.763	0.9319
9.6539	1.0361
9.5472	1.1558
9.4429	1.2429
9.3408	1.2742
9.2409	1.2427
9.1431	1.2295
9.0474	1.2334
8.9536	1.1936
8.8618	1.166
8.7718	1.0828
8.6837	1.0574
8.5973	1.0195
8.5126	1.1035
8.4295	1.2383
8.3481	1.4543
8.2682	1.739
8.1898	2.0115
8.1129	2.2229
8.0374	2.4089
7.9634	2.5903
7.8906	2.7493
7.8192	2.8911
7.7491	3.0471
7.6802	3.1772
7.6126	3.262
7.5461	3.363
7.4807	3.4919
7.4165	3.602
7.3534	3.7124
7.2914	3.8169
7.2303	3.9009
7.1703	4.0063
7.1113	4.0906
7.0533	4.1755
6.9962	4.2783
6.94	4.3513
6.8847	4.4006
6.8302	4.48
6.7767	4.5303
6.7239	4.5312
6.672	4.5308
6.6209	4.5578
6.5705	4.6084
6.5209	4.6648
6.4721	4.698
6.424	4.7024
6.3766	4.6665
6.3299	4.5762
6.2838	4.5349
6.2385	4.5061
6.1937	4.5268
6.1496	4.562
6.1062	4.5381
6.0633	4.4214
6.0211	4.2927
5.9794	4.3926
5.9383	4.6025
5.8978	4.7405
5.8578	4.8254
5.8184	4.8933
5.7794	4.9402
5.741	4.9189
5.7031	4.8352
5.6657	4.7202
5.6288	4.7151
5.5924	4.8835
5.5564	5.0842
5.5209	5.1684
5.4859	5.1677
5.4513	5.1948
5.4171	5.2803
5.3833	5.3833
5.35	5.4536
5.3171	5.469
5.2846	5.4397
5.2524	5.4143
5.2207	5.3982
5.1893	5.3594
5.1584	5.3349
5.1277	5.4031
5.0975	5.4895
5.0676	5.572
5.038	5.6572
5.0088	5.7124
4.98	5.7348
4.9514	5.7676
4.9232	5.8594
4.8953	5.9748
4.8678	6.0615
4.8405	6.1347
4.8135	6.2124
4.7868	6.3056
4.7605	6.3852
4.7344	6.4558
4.7086	6.5058
4.6831	6.5527
4.6578	6.6145
4.6328	6.6797
4.6081	6.7532
4.5837	6.812
4.5595	6.8564
4.5356	6.8926
4.5119	6.9104
4.4884	6.9263
4.4652	6.9392
4.4423	6.9536
4.4196	6.9656
4.3971	6.9739
4.3748	6.9936
4.3528	6.9978
4.331	7.0066
4.3094	7.0141
4.288	7.0254
4.2668	7.0356
4.2458	7.0495
4.2251	7.0671
4.2045	7.0691
4.1841	7.084
4.164	7.0815
4.144	7.0869
4.1242	7.0932
4.1046	7.091
4.0852	7.095
4.066	7.0979
4.047	7.0945
4.0281	7.0923
4.0094	7.0932
3.9909	7.0891
3.9725	7.0845
3.9544	7.0744
3.9363	7.062
3.9185	7.0542
3.9008	7.0456
3.8833	7.0386
3.8659	7.0283
3.8487	7.0168
3.8316	7.0085
3.8147	6.9875
3.7979	6.9868
3.7813	6.9731
3.7648	6.9614
3.7485	6.9485
3.7323	6.927
3.7162	6.9065
3.7003	6.8852
3.6845	6.8706
3.6689	6.8484
3.6534	6.8257
3.638	6.8166
3.6227	6.7832
3.6076	6.7693
3.5926	6.74
3.5777	6.7058
3.563	6.6782
3.5484	6.6394
3.5338	6.603
3.5195	6.5325
3.5052	6.4534
3.491	6.4558
3.477	6.4338
3.463	6.4075
3.4492	6.355
3.4355	6.2932
3.4219	6.2202
3.4084	6.2082
3.395	6.2226
3.3817	6.2214
3.3685	6.2195
3.3554	6.2139
3.3425	6.1846
3.3296	6.144
3.3168	6.1118
3.3041	6.0574
3.2915	6.0381
3.279	6.01
3.2666	5.9619
3.2543	5.9419
3.2421	5.9048
3.23	5.8877
3.218	5.8542
3.206	5.833
3.1942	5.7995
3.1824	5.7651
3.1707	5.7312
3.1591	5.7095
3.1476	5.6789
3.1362	5.645
3.1249	5.6213
3.1136	5.5893
3.1024	5.5637
3.0913	5.5483
3.0803	5.5298
3.0694	5.5098
3.0585	5.4983
3.0477	5.4822
3.037	5.4609
3.0264	5.4414
3.0158	5.4302
3.0053	5.4065
2.9949	5.3867
2.9845	5.3838
2.9743	5.3689
2.9641	5.3498
2.9539	5.3323
2.9439	5.3244
2.9339	5.3169
2.9239	5.3188
2.9141	5.3271
2.9043	5.333
2.8946	5.3288
2.8849	5.3406
2.8753	5.3498
2.8658	5.3633
2.8563	5.3801
2.8469	5.3899
2.8375	5.4182
2.8282	5.4348
2.819	5.4541
2.8098	5.4905
2.8007	5.5217
2.7917	5.5576
2.7827	5.6006
2.7738	5.6465
2.7649	5.7117
2.7561	5.7768
2.7473	5.8452
2.7386	5.9397
2.7299	6.0154
2.7213	6.0796
2.7128	6.1933
2.7043	6.3049
2.6959	6.3945
2.6875	6.4585
2.6791	6.5066
2.6709	6.5444
2.6626	6.5547
2.6545	6.5642
2.6463	6.5598
2.6382	6.5686
2.6302	6.5598
2.6222	6.5469
2.6143	6.5432
2.6064	6.5339
2.5986	6.5198
2.5908	6.5068
2.583	6.5002
2.5753	6.4856
2.5677	6.4758
2.5601	6.4575
2.5525	6.4582
2.545	6.4299
2.5375	6.4275
2.5301	6.4065
2.5227	6.4097
2.5154	6.3784
2.5081	6.3777
2.5008	6.3459
2.4936	6.3244
2.4864	6.3096
2.4793	6.3022
2.4722	6.2793
2.4651	6.269
2.4581	6.2602
2.4511	6.2422
2.4442	6.2251
2.4373	6.1997
2.4305	6.2021
2.4236	6.1841
2.4169	6.1889
2.4101	6.1721
2.4034	6.1606
2.3967	6.1252
2.3901	6.1496
2.3835	6.1194
2.377	6.0884
2.3704	6.083
2.364	6.0871
2.3575	6.0593
2.3511	6.0461
2.3447	6.0442
2.3384	6.0417
2.3321	6.01
2.3258	6.0212
2.3195	6.0054
2.3133	6.0027
2.3071	5.9768
2.301	5.988
2.2949	5.9831
2.2888	5.9568
2.2828	5.9827
2.2767	5.9441
2.2708	5.9326
2.2648	5.9436
2.2589	5.928
2.253	5.9497
2.2471	5.9333
2.2413	5.957
2.2355	5.8989
2.2297	5.9133
2.224	5.9216
2.2183	5.9106
2.2126	5.8967
2.207	5.9072
2.2013	5.8713
2.1957	5.8669
2.1902	5.8811
2.1846	5.863
2.1791	5.8686
2.1736	5.8406
2.1682	5.8437
2.1628	5.8381
2.1574	5.8369
2.152	5.8503
2.1466	5.8291
2.1413	5.8332
2.136	5.8132
2.1308	5.8225
2.1255	5.8205
2.1203	5.8193
2.1151	5.8191
2.11	5.8147
2.1048	5.8332
2.0997	5.8171
2.0946	5.8174
2.0895	5.8076
2.0845	5.8003
2.0795	5.7407
