Name: Pyrrhotite Fe(1-x)S
Type: Mineral
Class: Sulfides
Particle Size: Fine  (0-74  Micrometers)
Sample No.: pyroph.1
Owner: JHU
Wavelength Range: IR
Origin: Stoneham, Maine, USA via the Smithsonian (sample no. NMNH
Description: The sample consisted of two large fragments and many
Measurement: Bidirectional reflectance
X Units: Wavelength (micrometers)
Y Units: Reflectance (percent)
wavelength	value
25.0442	3.3559
24.3388	3.4011
23.6719	3.331
23.0407	3.4143
22.4422	3.3779
21.8741	3.4272
21.334	3.3953
20.8199	3.3723
20.33	3.3779
19.8627	3.3623
19.4163	3.4014
18.9896	3.3872
18.5812	3.4111
18.19	3.396
17.815	3.3906
17.4551	3.3757
17.1094	3.3728
16.7772	3.3435
16.4576	3.3213
16.15	3.2947
15.8537	3.3096
15.568	3.314
15.2925	3.3091
15.0265	3.3091
14.7697	3.3325
14.5214	3.2871
14.2814	3.2842
14.0492	3.2993
13.8244	3.2934
13.6067	3.2488
13.3957	3.2595
13.1912	3.2529
12.9929	3.2495
12.8004	3.248
12.6135	3.2336
12.432	3.2324
12.2557	3.2046
12.0843	3.1667
11.9176	3.1555
11.7555	3.1392
11.5977	3.1204
11.444	3.1155
11.2944	3.1103
11.1487	3.1001
11.0067	3.093
10.8682	3.0986
10.7332	3.0859
10.6015	3.0786
10.473	3.0588
10.3476	3.0515
10.2251	3.0325
10.1056	3.0344
9.98873	3.031
9.87458	3.0232
9.763	3.0244
9.65392	3.0283
9.54724	3.0071
9.44291	2.9922
9.34082	2.9802
9.24091	2.989
9.14312	2.9827
9.04739	2.9773
8.95363	2.9827
8.8618	2.9809
8.77183	2.9636
8.68368	2.9692
8.59727	2.9661
8.51257	2.9578
8.42951	2.9431
8.34807	2.9446
8.26819	2.9338
8.18981	2.9375
8.11292	2.9282
8.03745	2.9121
7.96337	2.9043
7.89064	2.8987
7.81924	2.8896
7.74911	2.8787
7.68023	2.8633
7.61256	2.8569
7.54608	2.8498
7.48074	2.8428
7.41653	2.8376
7.35341	2.8332
7.29136	2.8293
7.23034	2.8381
7.17033	2.8445
7.11132	2.8411
7.05327	2.8398
6.99616	2.8315
6.93996	2.8362
6.88467	2.8359
6.83024	2.832
6.77667	2.8303
6.72393	2.8254
6.67201	2.8306
6.62089	2.8279
6.57054	2.8303
6.52095	2.8137
6.4721	2.8044
6.42398	2.7932
6.37657	2.7654
6.32986	2.7458
6.28382	2.7395
6.23845	2.7266
6.19373	2.7275
6.14965	2.7253
6.10619	2.7209
6.06334	2.7141
6.02109	2.7139
5.97942	2.7197
5.93832	2.7283
5.89778	2.7288
5.8578	2.7234
5.81835	2.7278
5.77943	2.718
5.74103	2.7202
5.70314	2.7131
5.66574	2.709
5.62883	2.7043
5.5924	2.7019
5.55644	2.6946
5.52093	2.6851
5.48588	2.6836
5.45127	2.6853
5.41709	2.6934
5.38334	2.6892
5.35	2.6785
5.31708	2.6799
5.28456	2.6728
5.25243	2.6699
5.2207	2.6677
5.18934	2.658
5.15836	2.6577
5.12775	2.6509
5.09749	2.6455
5.0676	2.6457
5.03805	2.646
5.00884	2.6435
4.97998	2.6448
4.95144	2.6377
4.92322	2.6428
4.89533	2.636
4.86775	2.6309
4.84048	2.633
4.81351	2.6328
4.78684	2.636
4.76047	2.6328
4.73439	2.6282
4.70859	2.6282
4.68306	2.6196
4.65782	2.625
4.63284	2.6157
4.60814	2.6106
4.58369	2.6079
4.5595	2.6042
4.53557	2.6033
4.51188	2.5901
4.48845	2.5857
4.46525	2.5884
4.44229	2.5859
4.41957	2.5862
4.39708	2.5757
4.37481	2.5742
4.35277	2.5752
4.33096	2.5715
4.30935	2.5625
4.28797	2.5605
4.26679	2.5557
4.24583	2.5515
4.22506	2.5539
4.2045	2.5596
4.18414	2.5539
4.16398	2.5474
4.14401	2.5478
4.12423	2.5437
4.10464	2.5466
4.08523	2.5449
4.066	2.5312
4.04696	2.5315
4.02809	2.5178
4.0094	2.5139
3.99088	2.5063
3.97253	2.5078
3.95435	2.5049
3.93634	2.5041
3.91848	2.5063
3.90079	2.4939
3.88326	2.4927
3.86589	2.4958
3.84867	2.4897
3.8316	2.4858
3.81468	2.489
3.79791	2.4822
3.78129	2.4851
3.76482	2.488
3.74848	2.4822
3.73229	2.4766
3.71624	2.4744
3.70032	2.469
3.68454	2.4675
3.6689	2.4661
3.65338	2.4641
3.638	2.4626
3.62275	2.4575
3.60762	2.4546
3.59262	2.4497
3.57775	2.4456
3.56299	2.448
3.54836	2.4414
3.53385	2.4387
3.51945	2.4331
3.50517	2.4299
3.49101	2.4219
3.47696	2.4153
3.46303	2.4216
3.4492	2.4123
3.43549	2.4087
3.42188	2.4043
3.40838	2.4026
3.39499	2.394
3.38171	2.3945
3.36852	2.3872
3.35544	2.3867
3.34246	2.3828
3.32958	2.3843
3.3168	2.3796
3.30411	2.3747
3.29153	2.3804
3.27903	2.3769
3.26664	2.3777
3.25433	2.3718
3.24212	2.3691
3.23	2.3601
3.21797	2.3606
3.20603	2.3647
3.19418	2.3608
3.18241	2.3567
3.17074	2.3569
3.15914	2.3538
3.14763	2.3481
3.13621	2.3398
3.12487	2.3379
3.11361	2.3423
3.10243	2.3398
3.09133	2.331
3.0803	2.3223
3.06936	2.3223
3.0585	2.3208
3.04771	2.3142
3.037	2.3159
3.02636	2.3147
3.0158	2.3032
3.00531	2.301
2.99489	2.2959
2.98454	2.2996
2.97427	2.2954
2.96407	2.2903
2.95393	2.2964
2.94387	2.2988
2.93387	2.2861
2.92394	2.2876
2.91408	2.2903
2.90429	2.2898
2.89456	2.2847
2.88489	2.2861
2.87529	2.2856
2.86576	2.2881
2.85628	2.2976
2.84687	2.2837
2.83752	2.2771
2.82823	2.2734
2.81901	2.2695
2.80984	2.2717
2.80073	2.2759
2.79168	2.2815
2.78269	2.2707
2.77376	2.2678
2.76488	2.2734
2.75606	2.272
2.7473	2.2685
2.73859	2.2698
2.72994	2.2705
2.72134	2.2698
2.7128	2.2583
2.70431	2.2617
2.69587	2.2588
2.68748	2.2602
2.67915	2.2637
2.67087	2.2644
2.66264	2.2515
2.65446	2.2463
2.64633	2.2412
2.63825	2.2515
2.63021	2.2527
2.62223	2.2454
2.6143	2.2471
2.60641	2.2393
2.59857	2.241
2.59078	2.2393
2.58304	2.2388
2.57534	2.2351
2.56768	2.2412
2.56008	2.2358
2.55251	2.2285
2.54499	2.2349
2.53752	2.2314
2.53009	2.2356
2.5227	2.2163
2.51536	2.2227
2.50806	2.2273
2.5008	2.2158
2.49358	2.2253
2.4864	2.217
2.47927	2.2241
2.47218	2.2227
2.46512	2.218
2.45811	2.2212
2.45114	2.2148
2.4442	2.2158
2.43731	2.2187
2.43045	2.2056
2.42363	2.206
2.41685	2.2024
2.41011	2.2124
2.40341	2.2048
2.39674	2.2131
2.39011	2.2085
2.38352	2.2097
2.37696	2.2109
2.37044	2.1999
2.36395	2.2009
2.35751	2.1963
2.35109	2.2051
2.34471	2.2109
2.33836	2.2046
2.33205	2.1982
2.32578	2.1858
2.31953	2.2073
2.31332	2.187
2.30714	2.1992
2.301	2.2007
2.29489	2.1943
2.28881	2.2004
2.28276	2.1982
2.27675	2.1975
2.27076	2.1958
2.26481	2.208
2.25889	2.1894
2.253	2.1699
2.24714	2.1799
2.24131	2.1929
2.23551	2.1877
2.22974	2.1968
2.224	2.1804
2.21829	2.1907
2.21261	2.1973
2.20696	2.1953
2.20134	2.1799
2.19574	2.1785
2.19018	2.1909
2.18464	2.1789
2.17913	2.1697
2.17365	2.1826
2.16819	2.1672
2.16277	2.1711
2.15737	2.1768
2.15199	2.1643
2.14665	2.1699
2.14133	2.186
2.13603	2.1904
2.13077	2.1665
2.12552	2.186
2.12031	2.1572
2.11512	2.1755
2.10995	2.1731
2.10481	2.1614
2.0997	2.1692
2.09461	2.1587
2.08954	2.1602
2.0845	2.1726
2.07948	2.1755
