Name: Phlogopite KMg3Si3AlO10(F, OH)2
Type: Mineral
Class: Silicates
Subclass: Phyllosilicates (Sheet Silicates); (Mica Group)
Particle Size: Coarse  (75 - 250  Micrometers)
Sample No.: phlogop.2
Owner: JHU
Wavelength Range: IR
Origin: Ontario, Canada via the Hunt and Salisbury Collection #23B
Description: This second sample of phlogopite also displayed the
Measurement: Bidirectional reflectance
X Units: Wavelength (micrometers)
Y Units: Reflectance (percent)
wavelength	value
25.0442	4.6133
24.3388	5.0478
23.6719	5.415
23.0407	6.2583
22.4422	7.0657
21.8741	8.5229
21.334	10.051
20.8199	10.154
20.33	9.7173
19.8627	10.2539
19.4163	10.2441
18.9896	10.7207
18.5812	11.3108
18.19	11.0622
17.815	9.0732
17.4551	5.4438
17.1094	2.6184
16.7772	2.1338
16.4576	2.0315
16.15	1.9155
15.8537	1.9204
15.568	1.9255
15.2925	1.9644
15.0265	1.9255
14.7697	1.9163
14.5214	1.9426
14.2814	2.0051
14.0492	2.0898
13.8244	2.0566
13.6067	1.9573
13.3957	2.0566
13.1912	2.3086
12.9929	2.4897
12.8004	2.9346
12.6135	3.2266
12.432	3.1619
12.2557	3.238
12.0843	3.9465
11.9176	4.5178
11.7555	4.3223
11.5977	4.0942
11.444	3.9348
11.2944	3.883
11.1487	3.6372
11.0067	3.4885
10.8682	3.5237
10.7332	3.6413
10.6015	3.8572
10.473	4.24
10.3476	4.9131
10.2251	5.1123
10.1056	5.4231
9.98873	6.7339
9.87458	8.8874
9.763	9.9958
9.65392	9.1804
9.54724	8.4782
9.44291	8.3327
9.34082	8.6116
9.24091	9.2951
9.14312	9.6423
9.04739	9.2434
8.95363	8.4868
8.8618	7.1655
8.77183	5.5622
8.68368	3.8035
8.59727	2.3098
8.51257	1.4397
8.42951	1.4133
8.34807	1.8555
8.26819	2.4294
8.18981	2.9687
8.11292	3.468
8.03745	3.915
7.96337	4.2764
7.89064	4.6218
7.81924	4.9292
7.74911	5.1731
7.68023	5.4172
7.61256	5.6868
7.54608	6.0063
7.48074	6.2605
7.41653	6.5071
7.35341	6.7661
7.29136	7.0251
7.23034	7.3415
7.17033	7.6074
7.11132	7.894
7.05327	8.1491
6.99616	8.4778
6.93996	8.7995
6.88467	9.0698
6.83024	9.2864
6.77667	9.5085
6.72393	9.6789
6.67201	9.8308
6.62089	9.9702
6.57054	10.0234
6.52095	9.998
6.4721	9.8054
6.42398	9.4927
6.37657	9.1728
6.32986	8.8171
6.28382	8.4736
6.23845	8.145
6.19373	7.884
6.14965	7.7026
6.10619	7.6518
6.06334	7.7187
6.02109	7.8491
5.97942	8.0298
5.93832	8.1206
5.89778	8.1416
5.8578	8.1789
5.81835	8.2212
5.77943	8.3286
5.74103	8.4411
5.70314	8.5381
5.66574	8.6604
5.62883	8.8696
5.5924	9.0512
5.55644	9.1924
5.52093	9.3218
5.48588	9.4543
5.45127	9.6755
5.41709	10.0327
5.38334	10.5285
5.35	11.0674
5.31708	11.6196
5.28456	12.0556
5.25243	12.25
5.2207	12.3274
5.18934	12.342
5.15836	12.331
5.12775	12.2841
5.09749	12.2107
5.0676	12.1491
5.03805	12.0949
5.00884	12.0874
4.97998	12.1472
4.95144	12.2048
4.92322	12.1726
4.89533	12.1333
4.86775	12.1792
4.84048	12.3081
4.81351	12.4748
4.78684	12.6626
4.76047	12.8977
4.73439	13.1655
4.70859	13.4231
4.68306	13.6289
4.65782	13.8593
4.63284	14.1342
4.60814	14.3808
4.58369	14.6296
4.5595	14.8552
4.53557	15.0044
4.51188	15.102
4.48845	15.163
4.46525	15.2087
4.44229	15.2544
4.41957	15.2805
4.39708	15.2963
4.37481	15.3117
4.35277	15.3286
4.33096	15.3469
4.30935	15.365
4.28797	15.3828
4.26679	15.3901
4.24583	15.4194
4.22506	15.4401
4.2045	15.4577
4.18414	15.4633
4.16398	15.4733
4.14401	15.4919
4.12423	15.5173
4.10464	15.5361
4.08523	15.5468
4.066	15.5769
4.04696	15.5947
4.02809	15.6159
4.0094	15.6225
3.99088	15.6264
3.97253	15.6345
3.95435	15.666
3.93634	15.7055
3.91848	15.7319
3.90079	15.7363
3.88326	15.7495
3.86589	15.7563
3.84867	15.7614
3.8316	15.7487
3.81468	15.7404
3.79791	15.7326
3.78129	15.7219
3.76482	15.7199
3.74848	15.707
3.73229	15.6894
3.71624	15.6779
3.70032	15.655
3.68454	15.6374
3.6689	15.6186
3.65338	15.5927
3.638	15.5932
3.62275	15.5918
3.60762	15.5842
3.59262	15.5817
3.57775	15.5527
3.56299	15.5363
3.54836	15.5004
3.53385	15.4602
3.51945	15.3403
3.50517	15.1655
3.49101	15.2129
3.47696	15.2409
3.46303	15.2334
3.4492	15.1762
3.43549	15.0715
3.42188	14.8457
3.40838	14.8354
3.39499	14.9572
3.38171	14.9516
3.36852	14.9499
3.35544	14.9875
3.34246	14.9787
3.32958	14.9497
3.3168	14.8911
3.30411	14.812
3.29153	14.7243
3.27903	14.6257
3.26664	14.538
3.25433	14.4382
3.24212	14.3469
3.23	14.2451
3.21797	14.1963
3.20603	14.2043
3.19418	14.2221
3.18241	14.2546
3.17074	14.2461
3.15914	14.1933
3.14763	14.123
3.13621	14.0268
3.12487	13.9531
3.11361	13.854
3.10243	13.7995
3.09133	13.7929
3.0803	13.812
3.06936	13.7949
3.0585	13.7419
3.04771	13.6987
3.037	13.6692
3.02636	13.6284
3.0158	13.5737
3.00531	13.5188
2.99489	13.5278
2.98454	13.5131
2.97427	13.4768
2.96407	13.4387
2.95393	13.3923
2.94387	13.3742
2.93387	13.3506
2.92394	13.3081
2.91408	13.2988
2.90429	13.29
2.89456	13.2893
2.88489	13.2881
2.87529	13.247
2.86576	13.2065
2.85628	13.1594
2.84687	13.0822
2.83752	12.9839
2.82823	12.875
2.81901	12.7646
2.80984	12.636
2.80073	12.5517
2.79168	12.3879
2.78269	12.1399
2.77376	12.0263
2.76488	11.7216
2.75606	11.1875
2.7473	10.5407
2.73859	9.7177
2.72994	9.2866
2.72134	9.3865
2.7128	9.352
2.70431	7.8691
2.69587	7.0263
2.68748	8.477
2.67915	12.7031
2.67087	14.5373
2.66264	14.8789
2.65446	14.8418
2.64633	14.7058
2.63825	14.6328
2.63021	14.7031
2.62223	14.8227
2.6143	14.8833
2.60641	14.8696
2.59857	14.9013
2.59078	14.8764
2.58304	14.7968
2.57534	14.749
2.56768	14.7392
2.56008	14.7204
2.55251	14.771
2.54499	14.8545
2.53752	14.8847
2.53009	14.9204
2.5227	14.8945
2.51536	14.8271
2.50806	14.7763
2.5008	14.7727
2.49358	14.8068
2.4864	14.77
2.47927	14.7824
2.47218	14.7619
2.46512	14.675
2.45811	14.6064
2.45114	14.5241
2.4442	14.4052
2.43731	14.4663
2.43045	14.5112
2.42363	14.592
2.41685	14.5766
2.41011	14.5039
2.40341	14.4238
2.39674	14.3254
2.39011	14.0297
2.38352	13.7705
2.37696	13.7678
2.37044	14.0395
2.36395	14.2824
2.35751	14.3674
2.35109	14.3735
2.34471	14.3022
2.33836	14.0356
2.33205	13.5725
2.32578	13.2807
2.31953	13.4111
2.31332	13.6582
2.30714	14.021
2.301	14.3745
2.29489	14.5771
2.28881	14.7939
2.28276	14.9482
2.27675	15.1369
2.27076	15.2041
2.26481	15.3039
2.25889	15.2356
2.253	15.0996
2.24714	14.9221
2.24131	15.0615
2.23551	15.3635
2.22974	15.4931
2.224	15.6154
2.21829	15.6096
2.21261	15.6386
2.20696	15.6584
2.20134	15.6591
2.19574	15.7041
2.19018	15.7092
2.18464	15.7304
2.17913	15.7197
2.17365	15.7138
2.16819	15.6689
2.16277	15.7265
2.15737	15.6919
2.15199	15.6704
2.14665	15.6298
2.14133	15.6523
2.13603	15.623
2.13077	15.6337
2.12552	15.6445
2.12031	15.6181
2.11512	15.5966
2.10995	15.6084
2.10481	15.6181
2.0997	15.642
2.09461	15.6289
2.08954	15.664
2.0845	15.7045
2.07948	15.6543
