Name: Labradorite (Na,Ca)Al(Al,Si)Si2O8
Type: Mineral
Class: Silicates
Subclass: Tectosilicates (Framework Silicates); (Feldspar Group)
Particle Size: Solid (Fractured Surface)
Sample No.: labrador.1
Owner: JHU
Wavelength Range: IR
Origin: Lake County, Oregon, acquired from the Smithsonian (sample
Description: The sample consisted of a 2 cm x 1 cm x 0.2 cm, 0.536 g
Measurement: Bidirectional reflectance
X Units: Wavelength (micrometers)
Y Units: Reflectance (percent)
wavelength	value
25.0442	15.2724
24.3388	14.5713
23.6719	14.1709
23.0407	12.843
22.4422	9.4182
21.8741	8.8432
21.334	9.9419
20.8199	9.7605
20.33	9.3186
19.8627	9.6982
19.4163	10.2602
18.9896	10.9663
18.5812	13.3303
18.19	11.1406
17.815	9.3159
17.4551	10.0007
17.1094	8.8428
16.7772	9.6943
16.4576	11.2807
16.15	11.4048
15.8537	11.018
15.568	11.438
15.2925	9.4817
15.0265	7.6621
14.7697	7.9917
14.5214	7.8396
14.2814	7.7781
14.0492	7.9992
13.8244	8.4573
13.6067	8.8791
13.3957	8.8115
13.1912	8.6614
12.9929	8.5527
12.8004	8.1662
12.6135	7.9717
12.432	8.4475
12.2557	9.1108
12.0843	9.7771
11.9176	10.3606
11.7555	10.8869
11.5977	11.4333
11.444	12.2524
11.2944	13.5327
11.1487	15.2319
11.0067	16.9865
10.8682	18.5029
10.7332	19.2358
10.6015	19.4855
10.473	19.2758
10.3476	18.1794
10.2251	17.5346
10.1056	17.7563
9.98873	17.8747
9.87458	17.1311
9.763	15.9377
9.65392	14.809
9.54724	13.9301
9.44291	13.5149
9.34082	13.4201
9.24091	13.5556
9.14312	14.3862
9.04739	15.634
8.95363	16.4428
8.8618	16.437
8.77183	16.0505
8.68368	15.7038
8.59727	15.0463
8.51257	14.2378
8.42951	13.7336
8.34807	13.7129
8.26819	13.2717
8.18981	10.2368
8.11292	6.7014
8.03745	3.7761
7.96337	1.9226
7.89064	1.9844
7.81924	2.4443
7.74911	2.8423
7.68023	3.1457
7.61256	3.3332
7.54608	3.5657
7.48074	3.7349
7.41653	3.9099
7.35341	4.0329
7.29136	4.1308
7.23034	4.2925
7.17033	4.3982
7.11132	4.4924
7.05327	4.543
6.99616	4.6042
6.93996	4.7053
6.88467	4.7839
6.83024	4.8608
6.77667	4.9023
6.72393	4.9973
6.67201	5.0852
6.62089	5.1472
6.57054	5.1745
6.52095	5.2351
6.4721	5.2644
6.42398	5.2693
6.37657	5.313
6.32986	5.3491
6.28382	5.3808
6.23845	5.3974
6.19373	5.4145
6.14965	5.4397
6.10619	5.4575
6.06334	5.4861
6.02109	5.4734
5.97942	5.4553
5.93832	5.4155
5.89778	5.4319
5.8578	5.4726
5.81835	5.4648
5.77943	5.5127
5.74103	5.5525
5.70314	5.5483
5.66574	5.5698
5.62883	5.5842
5.5924	5.5957
5.55644	5.6125
5.52093	5.6348
5.48588	5.6487
5.45127	5.6611
5.41709	5.6684
5.38334	5.6821
5.35	5.6782
5.31708	5.6943
5.28456	5.6953
5.25243	5.707
5.2207	5.7114
5.18934	5.7156
5.15836	5.7109
5.12775	5.7185
5.09749	5.7104
5.0676	5.7051
5.03805	5.7143
5.00884	5.7146
4.97998	5.7163
4.95144	5.7197
4.92322	5.7209
4.89533	5.7222
4.86775	5.729
4.84048	5.7351
4.81351	5.7536
4.78684	5.7497
4.76047	5.7561
4.73439	5.7554
4.70859	5.7475
4.68306	5.7475
4.65782	5.7651
4.63284	5.7563
4.60814	5.761
4.58369	5.7637
4.5595	5.7622
4.53557	5.7539
4.51188	5.7527
4.48845	5.7541
4.46525	5.7483
4.44229	5.748
4.41957	5.7563
4.39708	5.759
4.37481	5.7656
4.35277	5.7673
4.33096	5.7666
4.30935	5.7722
4.28797	5.7729
4.26679	5.7759
4.24583	5.772
4.22506	5.7788
4.2045	5.7805
4.18414	5.7805
4.16398	5.7776
4.14401	5.7766
4.12423	5.7668
4.10464	5.758
4.08523	5.7505
4.066	5.748
4.04696	5.74
4.02809	5.7236
4.0094	5.7148
3.99088	5.7043
3.97253	5.7016
3.95435	5.685
3.93634	5.6816
3.91848	5.6785
3.90079	5.6719
3.88326	5.6721
3.86589	5.6516
3.84867	5.6523
3.8316	5.6445
3.81468	5.6323
3.79791	5.6174
3.78129	5.6125
3.76482	5.5964
3.74848	5.5815
3.73229	5.571
3.71624	5.5591
3.70032	5.5373
3.68454	5.5246
3.6689	5.5046
3.65338	5.5012
3.638	5.4897
3.62275	5.4853
3.60762	5.4741
3.59262	5.4538
3.57775	5.4485
3.56299	5.4238
3.54836	5.405
3.53385	5.3899
3.51945	5.385
3.50517	5.3623
3.49101	5.2869
3.47696	5.2468
3.46303	5.2392
3.4492	5.2392
3.43549	5.2722
3.42188	5.2834
3.40838	5.1911
3.39499	5.1396
3.38171	5.1599
3.36852	5.1299
3.35544	5.1394
3.34246	5.147
3.32958	5.1462
3.3168	5.1404
3.30411	5.1243
3.29153	5.0998
3.27903	5.0857
3.26664	5.0737
3.25433	5.0437
3.24212	5.011
3.23	4.9783
3.21797	4.9702
3.20603	4.9309
3.19418	4.9079
3.18241	4.8789
3.17074	4.8454
3.15914	4.8125
3.14763	4.7825
3.13621	4.7632
3.12487	4.7256
3.11361	4.6916
3.10243	4.6633
3.09133	4.6206
3.0803	4.5901
3.06936	4.5745
3.0585	4.5351
3.04771	4.5027
3.037	4.4917
3.02636	4.4665
3.0158	4.4233
3.00531	4.4067
2.99489	4.4065
2.98454	4.373
2.97427	4.3506
2.96407	4.3337
2.95393	4.3057
2.94387	4.2961
2.93387	4.2634
2.92394	4.2251
2.91408	4.2126
2.90429	4.1826
2.89456	4.1592
2.88489	4.1545
2.87529	4.1186
2.86576	4.1059
2.85628	4.084
2.84687	4.0669
2.83752	4.0622
2.82823	4.0688
2.81901	4.0654
2.80984	4.0654
2.80073	4.0383
2.79168	4.051
2.78269	4.0395
2.77376	4.0308
2.76488	4.0176
2.75606	4.001
2.7473	3.9971
2.73859	3.9809
2.72994	3.9829
2.72134	3.9302
2.7128	3.9282
2.70431	3.8899
2.69587	3.8428
2.68748	3.8398
2.67915	3.8149
2.67087	3.7607
2.66264	3.7678
2.65446	3.7385
2.64633	3.7241
2.63825	3.6938
2.63021	3.6267
2.62223	3.616
2.6143	3.5769
2.60641	3.5557
2.59857	3.5293
2.59078	3.4971
2.58304	3.4626
2.57534	3.4436
2.56768	3.4192
2.56008	3.4028
2.55251	3.3867
2.54499	3.3633
2.53752	3.3144
2.53009	3.2766
2.5227	3.2485
2.51536	3.2295
2.50806	3.2417
2.5008	3.1973
2.49358	3.1694
2.4864	3.1343
2.47927	3.144
2.47218	3.0898
2.46512	3.0627
2.45811	3.0342
2.45114	3.0259
2.4442	3.0032
2.43731	2.9641
2.43045	2.9748
2.42363	2.9175
2.41685	2.9331
2.41011	2.9075
2.40341	2.8733
2.39674	2.8948
2.39011	2.8498
2.38352	2.8203
2.37696	2.8154
2.37044	2.7812
2.36395	2.7629
2.35751	2.7444
2.35109	2.7353
2.34471	2.719
2.33836	2.7346
2.33205	2.6926
2.32578	2.6819
2.31953	2.6838
2.31332	2.6553
2.30714	2.6377
2.301	2.6328
2.29489	2.6284
2.28881	2.5898
2.28276	2.5835
2.27675	2.5771
2.27076	2.5478
2.26481	2.5557
2.25889	2.5386
2.253	2.5112
2.24714	2.5244
2.24131	2.5259
2.23551	2.5132
2.22974	2.4902
2.224	2.4629
2.21829	2.4619
2.21261	2.4365
2.20696	2.4463
2.20134	2.4228
2.19574	2.3935
2.19018	2.4048
2.18464	2.3877
2.17913	2.3955
2.17365	2.3833
2.16819	2.3696
2.16277	2.3818
2.15737	2.3716
2.15199	2.2998
2.14665	2.3057
2.14133	2.2793
2.13603	2.3091
2.13077	2.2803
2.12552	2.2822
2.12031	2.2778
2.11512	2.2471
2.10995	2.2109
2.10481	2.2383
2.0997	2.2056
2.09461	2.2207
2.08954	2.186
2.0845	2.1728
2.07948	2.1777
