Name: Augite (Ca,Na)(Mg,Fe,Al,Ti)(Si,Al)2O6
Type: Mineral
Class: Silicates
Subclass: Inosilicates (Pyroxene Group - single chain)
Particle Size: Fine (less than 2 Micrometers)
Sample No.: augite.2
Owner: JHU
Wavelength Range: IR
Origin: Sample from Rozier, near Gorges du Tarn, Tarn, France via
Description: The sample was a single 22.31 g portion of a single
Measurement: Transmission
X Units: Wavelength (micrometers)
Y Units: Transmittance (percent)
wavelength	value
25.0442	42.8358
24.3388	40.3632
23.6719	40.4706
23.0407	39.7655
22.4422	36.828
21.8741	29.6601
21.334	23.0624
20.8199	19.7363
20.33	21.3134
19.8627	22.5976
19.4163	22.6796
18.9896	25.0702
18.5812	29.3876
18.19	35.7089
17.815	44.4901
17.4551	53.8592
17.1094	61.8885
16.7772	68.9686
16.4576	72.034
16.15	71.4793
15.8537	68.203
15.568	66.6326
15.2925	74.0315
15.0265	77.2693
14.7697	78.0022
14.5214	79.6209
14.2814	80.0105
14.0492	80.451
13.8244	80.448
13.6067	80.0808
13.3957	77.6287
13.1912	74.6526
12.9929	72.4764
12.8004	70.3558
12.6135	67.9769
12.432	64.575
12.2557	59.6346
12.0843	53.4867
11.9176	46.0844
11.7555	36.5941
11.5977	27.8481
11.444	23.2612
11.2944	21.6923
11.1487	21.2275
11.0067	21.186
10.8682	21.8471
10.7332	24.1205
10.6015	26.4384
10.473	26.0707
10.3476	24.214
10.2251	23.9182
10.1056	25.9387
9.98873	27.1965
9.87458	28.1525
9.763	28.5156
9.65392	26.8329
9.54724	23.7082
9.44291	20.5761
9.34082	19.1547
9.24091	20.9316
9.14312	26.537
9.04739	36.0365
8.95363	45.2167
8.8618	52.7113
8.77183	59.1007
8.68368	64.8778
8.59727	69.294
8.51257	72.4774
8.42951	75.4573
8.34807	78.1824
8.26819	80.6209
8.18981	82.6194
8.11292	84.3225
8.03745	85.7083
7.96337	87.0559
7.89064	88.1016
7.81924	88.8797
7.74911	89.6614
7.68023	90.3357
7.61256	91.053
7.54608	91.6633
7.48074	92.197
7.41653	92.6018
7.35341	93.0183
7.29136	93.345
7.23034	93.6619
7.17033	94.3398
7.11132	94.7012
7.05327	94.6533
6.99616	94.9668
6.93996	95.3652
6.88467	95.4841
6.83024	95.5166
6.77667	95.7205
6.72393	95.8691
6.67201	95.9993
6.62089	96.0703
6.57054	96.1543
6.52095	96.135
6.4721	96.1514
6.42398	96.1728
6.37657	96.1926
6.32986	96.2432
6.28382	96.3799
6.23845	96.5225
6.19373	96.4346
6.14965	95.9685
6.10619	95.8789
6.06334	96.124
6.02109	97.0701
5.97942	97.9997
5.93832	97.553
5.89778	97.2693
5.8578	97.3994
5.81835	97.6621
5.77943	97.8542
5.74103	97.9834
5.70314	97.9578
5.66574	97.9482
5.62883	97.9678
5.5924	97.9778
5.55644	97.9612
5.52093	97.946
5.48588	97.8874
5.45127	97.8259
5.41709	97.7676
5.38334	97.6172
5.35	97.5925
5.31708	97.5037
5.28456	97.4394
5.25243	97.3603
5.2207	97.3015
5.18934	97.282
5.15836	97.2422
5.12775	97.1628
5.09749	97.1367
5.0676	97.1345
5.03805	97.1396
5.00884	97.041
4.97998	97.0095
4.95144	96.9846
4.92322	96.9099
4.89533	96.8865
4.86775	96.8601
4.84048	96.8262
4.81351	96.7842
4.78684	96.7512
4.76047	96.7263
4.73439	96.6592
4.70859	96.6233
4.68306	96.5095
4.65782	96.4697
4.63284	96.4258
4.60814	96.5066
4.58369	96.3027
4.5595	96.2234
4.53557	96.1238
4.51188	96.033
4.48845	95.9861
4.46525	95.8357
4.44229	95.7363
4.41957	95.6619
4.39708	95.574
4.37481	95.532
4.35277	95.3984
4.33096	95.3057
4.30935	95.2
4.28797	95.1228
4.26679	95.0002
4.24583	94.9329
4.22506	94.8108
4.2045	94.6946
4.18414	94.637
4.16398	94.5359
4.14401	94.3669
4.12423	94.3035
4.10464	94.1897
4.08523	94.1218
4.066	93.9827
4.04696	93.8943
4.02809	93.7839
4.0094	93.6492
3.99088	93.5442
3.97253	93.3777
3.95435	93.3142
3.93634	93.2283
3.91848	93.1589
3.90079	93.0794
3.88326	92.9465
3.86589	92.8181
3.84867	92.6892
3.8316	92.5808
3.81468	92.488
3.79791	92.3821
3.78129	92.2844
3.76482	92.1492
3.74848	91.9729
3.73229	91.8464
3.71624	91.7351
3.70032	91.532
3.68454	91.4666
3.6689	91.3025
3.65338	91.2254
3.638	91.1189
3.62275	90.9885
3.60762	90.8206
3.59262	90.7254
3.57775	90.5881
3.56299	90.3884
3.54836	90.2288
3.53385	90.0422
3.51945	89.7517
3.50517	89.3093
3.49101	89.3245
3.47696	89.2595
3.46303	89.159
3.4492	88.9265
3.43549	88.6521
3.42188	88.1121
3.40838	88.0281
3.39499	88.2908
3.38171	88.3113
3.36852	88.3357
3.35544	88.2014
3.34246	88.1902
3.32958	88.1682
3.3168	88.0349
3.30411	87.9026
3.29153	87.7674
3.27903	87.6033
3.26664	87.5017
3.25433	87.4241
3.24212	87.3245
3.23	87.1638
3.21797	86.9885
3.20603	86.8367
3.19418	86.719
3.18241	86.5564
3.17074	86.3435
3.15914	86.1409
3.14763	85.9827
3.13621	85.7835
3.12487	85.5838
3.11361	85.346
3.10243	85.072
3.09133	84.7132
3.0803	84.406
3.06936	84.2166
3.0585	83.951
3.04771	83.7732
3.037	83.5745
3.02636	83.3748
3.0158	83.0335
3.00531	82.6468
2.99489	82.2605
2.98454	81.9431
2.97427	81.4099
2.96407	80.8904
2.95393	80.4695
2.94387	80.1219
2.93387	79.823
2.92394	79.5701
2.91408	79.4705
2.90429	79.3963
2.89456	79.3455
2.88489	79.2928
2.87529	79.2596
2.86576	79.2781
2.85628	79.3055
2.84687	79.4031
2.83752	79.451
2.82823	79.6756
2.81901	79.991
2.80984	80.2146
2.80073	80.3103
2.79168	80.5476
2.78269	80.7029
2.77376	80.9226
2.76488	81.2166
2.75606	81.5799
2.7473	81.865
2.73859	82.0467
2.72994	82.199
2.72134	82.2381
2.7128	82.3045
2.70431	82.3523
2.69587	82.4275
2.68748	82.4695
2.67915	82.4139
2.67087	82.3318
2.66264	82.1297
2.65446	82.0349
2.64633	81.95
2.63825	81.7976
2.63021	81.7478
2.62223	81.6805
2.6143	81.5242
2.60641	81.3904
2.59857	81.2517
2.59078	81.2615
2.58304	81.1414
2.57534	80.8289
2.56768	80.7703
2.56008	80.7586
2.55251	80.4803
2.54499	80.3279
2.53752	80.3006
2.53009	80.2459
2.5227	79.9109
2.51536	79.9695
2.50806	79.9139
2.5008	79.6883
2.49358	79.5516
2.4864	79.4451
2.47927	79.2967
2.47218	79.1834
2.46512	79.1853
2.45811	79.1189
2.45114	78.8904
2.4442	78.656
2.43731	78.6092
2.43045	78.5467
2.42363	78.4451
2.41685	78.3631
2.41011	78.2185
2.40341	78.1189
2.39674	78.0213
2.39011	77.8006
2.38352	77.7283
2.37696	77.6248
2.37044	77.6365
2.36395	77.4998
2.35751	77.41
2.35109	77.3357
2.34471	77.3318
2.33836	77.0193
2.33205	76.8357
2.32578	76.9373
2.31953	76.8748
2.31332	76.6678
2.30714	76.4412
2.301	76.5643
2.29489	76.4412
2.28881	76.3221
2.28276	76.0936
2.27675	75.9959
2.27076	75.9998
2.26481	75.908
2.25889	75.6033
2.253	75.7029
2.24714	75.8084
2.24131	75.6268
2.23551	75.5096
2.22974	75.4139
2.224	75.0818
2.21829	75.2147
2.21261	75.1795
2.20696	75.1971
2.20134	74.8943
2.19574	74.8709
2.19018	75.0389
2.18464	74.7732
2.17913	74.5975
2.17365	74.617
2.16819	74.5311
2.16277	74.8846
2.15737	74.408
2.15199	74.0115
2.14665	74.0623
2.14133	74.0955
2.13603	74.0154
2.13077	74.1033
2.12552	74.1268
2.12031	73.6736
2.11512	73.7811
2.10995	73.6736
2.10481	73.5018
2.0997	73.9471
2.09461	73.7498
2.08954	73.5174
2.0845	73.3768
2.07948	73.4334
