Name: Pyrope Mg3Al2(SiO4)3
Type: Mineral
Class: Silicates
Subclass: Nesosilicates (Isolated tetrahedra); Garnet Group
Particle Size: Fine  (0-74  Micrometers)
Sample No.: pyrope.1
Owner: JHU
Wavelength Range: IR
Origin: Finsch Mine, Brits Farm, 23 miles E. of Posemasburg, Cape
Description: The sample consisted of many rounded (tumbled?)
Measurement: Bidirectional reflectance
X Units: Wavelength (micrometers)
Y Units: Reflectance (percent)
wavelength	value
25.0442	3.8965
24.3388	3.6211
23.6719	3.9307
23.0407	4.8779
22.4422	6.2815
21.8741	7.7336
21.334	6.332
20.8199	7.8645
20.33	8.4526
19.8627	8.268
19.4163	7.198
18.9896	5.3623
18.5812	5.7632
18.19	3.1897
17.815	2.217
17.4551	4.5693
17.1094	6.0349
16.7772	5.9324
16.4576	5.1809
16.15	2.9199
15.8537	0.7725
15.568	0.7427
15.2925	1.146
15.0265	1.8057
14.7697	2.481
14.5214	2.9419
14.2814	3.2632
14.0492	3.5007
13.8244	3.5271
13.6067	3.5574
13.3957	3.5273
13.1912	3.4619
12.9929	3.4348
12.8004	3.354
12.6135	3.156
12.432	2.9643
12.2557	2.9353
12.0843	3.1345
11.9176	3.4036
11.7555	3.8811
11.5977	4.6733
11.444	4.9509
11.2944	4.2446
11.1487	5.3401
11.0067	5.6758
10.8682	4.9426
10.7332	3.0244
10.6015	1.9517
10.473	3.2734
10.3476	5.9407
10.2251	7.5559
10.1056	8.2524
9.98873	8.6445
9.87458	8.6633
9.763	8.6904
9.65392	8.9541
9.54724	8.5591
9.44291	7.8208
9.34082	6.5959
9.24091	4.8962
9.14312	2.9995
9.04739	1.2256
8.95363	0.2588
8.8618	0.2427
8.77183	0.4846
8.68368	0.7998
8.59727	1.137
8.51257	1.4851
8.42951	1.8677
8.34807	2.3059
8.26819	2.7644
8.18981	3.2322
8.11292	3.6492
8.03745	4.0173
7.96337	4.3948
7.89064	4.821
7.81924	5.259
7.74911	5.6553
7.68023	5.9595
7.61256	6.1015
7.54608	6.1496
7.48074	6.2056
7.41653	6.2446
7.35341	6.2534
7.29136	6.2458
7.23034	6.3269
7.17033	6.5635
7.11132	6.9599
7.05327	7.3674
6.99616	7.7846
6.93996	8.0478
6.88467	8.1006
6.83024	8.0845
6.77667	8.0737
6.72393	8.1452
6.67201	8.3901
6.62089	8.7287
6.57054	9.1909
6.52095	9.7187
6.4721	10.0964
6.42398	10.3913
6.37657	10.7741
6.32986	11.279
6.28382	11.8261
6.23845	12.247
6.19373	12.4944
6.14965	12.5627
6.10619	12.5451
6.06334	12.5234
6.02109	12.4226
5.97942	12.187
5.93832	11.6589
5.89778	10.8088
5.8578	9.7019
5.81835	8.6636
5.77943	7.8474
5.74103	7.2302
5.70314	6.7588
5.66574	6.4951
5.62883	6.4387
5.5924	6.52
5.55644	6.612
5.52093	6.7158
5.48588	6.9636
5.45127	7.3616
5.41709	7.7309
5.38334	8.1531
5.35	8.4736
5.31708	8.644
5.28456	8.8276
5.25243	8.9951
5.2207	9.2466
5.18934	9.6589
5.15836	10.1487
5.12775	10.7405
5.09749	11.407
5.0676	12.2319
5.03805	13.1804
5.00884	14.0302
4.97998	14.6003
4.95144	14.9892
4.92322	15.3005
4.89533	15.5854
4.86775	15.8027
4.84048	15.9079
4.81351	16.0239
4.78684	16.164
4.76047	16.3532
4.73439	16.5234
4.70859	16.6503
4.68306	16.7619
4.65782	16.8518
4.63284	16.9487
4.60814	17.039
4.58369	17.1093
4.5595	17.1728
4.53557	17.2172
4.51188	17.2873
4.48845	17.3525
4.46525	17.4169
4.44229	17.4794
4.41957	17.5571
4.39708	17.6298
4.37481	17.7031
4.35277	17.7656
4.33096	17.8029
4.30935	17.8493
4.28797	17.9082
4.26679	17.9602
4.24583	18.0244
4.22506	18.0766
4.2045	18.1284
4.18414	18.184
4.16398	18.2331
4.14401	18.2763
4.12423	18.3176
4.10464	18.3676
4.08523	18.4343
4.066	18.4831
4.04696	18.5319
4.02809	18.58
4.0094	18.6264
3.99088	18.6469
3.97253	18.6601
3.95435	18.6936
3.93634	18.7021
3.91848	18.7233
3.90079	18.7221
3.88326	18.6909
3.86589	18.6652
3.84867	18.6328
3.8316	18.6149
3.81468	18.614
3.79791	18.6125
3.78129	18.6276
3.76482	18.6613
3.74848	18.6818
3.73229	18.7189
3.71624	18.7268
3.70032	18.7385
3.68454	18.7548
3.6689	18.7563
3.65338	18.7797
3.638	18.7973
3.62275	18.8042
3.60762	18.8085
3.59262	18.8078
3.57775	18.8222
3.56299	18.7954
3.54836	18.7722
3.53385	18.7121
3.51945	18.6191
3.50517	18.3244
3.49101	18.448
3.47696	18.5268
3.46303	18.5573
3.4492	18.455
3.43549	18.3142
3.42188	17.976
3.40838	18.0263
3.39499	18.2788
3.38171	18.2631
3.36852	18.3298
3.35544	18.4836
3.34246	18.5585
3.32958	18.5646
3.3168	18.5202
3.30411	18.4958
3.29153	18.4416
3.27903	18.3715
3.26664	18.2856
3.25433	18.1953
3.24212	18.1254
3.23	18.0312
3.21797	17.9492
3.20603	17.8984
3.19418	17.8371
3.18241	17.8178
3.17074	17.8005
3.15914	17.7749
3.14763	17.7563
3.13621	17.7407
3.12487	17.7251
3.11361	17.7268
3.10243	17.7177
3.09133	17.7099
3.0803	17.7121
3.06936	17.7114
3.0585	17.694
3.04771	17.716
3.037	17.7131
3.02636	17.7033
3.0158	17.6684
3.00531	17.6337
2.99489	17.6611
2.98454	17.6601
2.97427	17.6176
2.96407	17.6005
2.95393	17.5932
2.94387	17.601
2.93387	17.5886
2.92394	17.6079
2.91408	17.5835
2.90429	17.643
2.89456	17.6503
2.88489	17.6611
2.87529	17.643
2.86576	17.6425
2.85628	17.6518
2.84687	17.6396
2.83752	17.5898
2.82823	17.5424
2.81901	17.5407
2.80984	17.5566
2.80073	17.5903
2.79168	17.6279
2.78269	17.6943
2.77376	17.7827
2.76488	17.7641
2.75606	17.9526
2.7473	18.1242
2.73859	18.2807
2.72994	18.434
2.72134	18.4826
2.7128	18.6696
2.70431	18.8945
2.69587	18.9982
2.68748	19.1667
2.67915	19.4082
2.67087	19.4357
2.66264	19.4597
2.65446	19.3996
2.64633	19.3479
2.63825	19.3366
2.63021	19.2568
2.62223	19.2065
2.6143	19.1884
2.60641	19.0793
2.59857	19.0393
2.59078	19.0136
2.58304	18.9746
2.57534	18.9055
2.56768	18.8779
2.56008	18.7814
2.55251	18.7275
2.54499	18.6877
2.53752	18.6362
2.53009	18.5432
2.5227	18.4826
2.51536	18.4194
2.50806	18.3593
2.5008	18.3281
2.49358	18.2773
2.4864	18.2255
2.47927	18.187
2.47218	18.1184
2.46512	18.0136
2.45811	17.9648
2.45114	17.9572
2.4442	17.8693
2.43731	17.8488
2.43045	17.7695
2.42363	17.746
2.41685	17.715
2.41011	17.6848
2.40341	17.6171
2.39674	17.5361
2.39011	17.4941
2.38352	17.4895
2.37696	17.4326
2.37044	17.4379
2.36395	17.3471
2.35751	17.3608
2.35109	17.3027
2.34471	17.2475
2.33836	17.2109
2.33205	17.2163
2.32578	17.1411
2.31953	17.1455
2.31332	17.1372
2.30714	17.1396
2.301	17.1171
2.29489	17.0752
2.28881	17.0659
2.28276	17.0044
2.27675	17.0151
2.27076	16.9868
2.26481	16.9799
2.25889	16.955
2.253	16.9414
2.24714	16.915
2.24131	16.9394
2.23551	16.9453
2.22974	16.9345
2.224	16.8828
2.21829	16.9716
2.21261	16.8872
2.20696	16.8872
2.20134	16.8618
2.19574	16.9379
2.19018	16.9165
2.18464	16.9062
2.17913	16.8945
2.17365	17.0024
2.16819	16.9785
2.16277	16.9965
2.15737	17.0395
2.15199	17.0351
2.14665	16.8818
2.14133	16.9809
2.13603	16.9692
2.13077	17.0141
2.12552	17.0771
2.12031	17.1035
2.11512	17.0664
2.10995	17.0712
2.10481	17.0727
2.0997	17.0586
2.09461	17.1919
2.08954	17.2016
2.0845	17.1875
2.07948	17.1484
