Name: Lithographic Limestone
Type: Rocks
Class: Sedimentary
Subclass: Limestone
Particle Size: 0 - 75 Micrometers
Sample No.: limestone.5
Owner: JHU
Wavelength Range: All
Origin: Sample No. 356,  The Hunt and Salisbury Collection at the U.S.
Description: The sample is a homogeneous microcrystalline carbonate
Measurement: Directional (10 Degree) Hemispherical Reflectance
X Units: Wavelength (micrometers)
Y Units: Reflectance (percent)
wavelength	value
14.983	21.745
14.645	23.119
14.321	19.25
14.011	1.5537
13.715	22.309
13.43	28.219
13.158	27.659
12.896	25.164
12.644	25.979
12.402	27.66
12.169	30.579
11.945	31.546
11.729	21.272
11.52	8.4536
11.319	4.9641
11.125	23.524
10.937	21.264
10.756	21.688
10.58	21.861
10.41	21.264
10.245	17.029
10.086	12.548
9.931	9.3305
9.781	8.2938
9.636	8.1742
9.495	10.027
9.358	11.436
9.225	12.743
9.095	15.142
8.969	17.138
8.847	21.332
8.727	23.51
8.612	20.858
8.499	20.802
8.389	23.605
8.281	26.912
8.177	27.818
8.075	26.153
7.976	26.545
7.879	24.446
7.784	22.917
7.692	20.43
7.601	16
7.513	14.349
7.427	11.769
7.343	8.2161
7.261	4.8708
7.18	3.3031
7.102	3.6995
7.025	3.6782
6.949	3.583
6.875	3.6598
6.803	3.7914
6.733	3.9664
6.663	4.4216
6.596	5.5808
6.529	6.596
6.464	8.0742
6.4	9.4653
6.338	7.3048
6.276	6.093
6.216	6.0791
6.157	5.9266
6.099	6.5371
6.042	7.724
5.986	9.7038
5.931	11.366
5.878	13.023
5.825	13.237
5.773	12.929
5.722	14.314
5.672	17.447
5.623	17.976
5.574	2.6019
5.527	16.366
5.48	31.021
5.434	39.215
5.389	45.543
5.345	50.056
5.301	54.286
5.258	57.521
5.215	60.186
5.174	62.011
5.133	63.352
5.093	58.695
5.053	65.466
5.014	65.738
4.975	65.946
4.937	66.188
4.9	66.784
4.863	67.426
4.827	67.775
4.791	67.872
4.756	66.175
4.721	59.941
4.687	47.922
4.654	48.491
4.62	58.204
4.588	61.224
4.556	61.879
4.524	62.141
4.492	63.304
4.461	66.287
4.431	68.77
4.401	70.097
4.371	70.426
4.342	68.76
4.313	68.609
4.284	68.962
4.256	68.542
4.229	67.991
4.201	67.207
4.174	65.636
4.147	63.292
4.121	59.52
4.095	55.275
4.069	49.356
4.044	38.441
4.019	23.608
3.994	10.055
3.97	7.9137
3.945	14.918
3.921	21.167
3.898	22.989
3.875	23.985
3.852	25.049
3.829	30.733
3.806	42.594
3.784	58.194
3.762	63.169
3.74	64.966
3.719	66.501
3.698	66.943
3.677	66.824
3.656	66.162
3.636	65.107
3.615	63.674
3.595	60.937
3.575	54.872
3.556	52.972
3.536	45.083
3.517	28.36
3.498	20.994
3.479	16.546
3.461	25.133
3.442	28.007
3.424	28.248
3.406	27.741
3.388	26.632
3.371	25.616
3.353	21.76
3.336	37.198
3.319	48.324
3.302	51.503
3.285	53.037
3.269	53.832
3.252	54.049
3.236	53.991
3.22	53.783
3.204	53.396
3.188	52.861
3.173	52.008
3.157	50.462
3.142	49.931
3.127	49.751
3.112	48.635
3.097	48.775
3.082	49.274
3.067	49.431
3.053	49.506
3.039	49.531
3.025	49.531
3.011	49.358
2.997	49.22
2.983	49.178
2.969	48.942
2.956	48.871
2.942	48.814
2.929	48.89
2.916	49.13
2.903	49.379
2.89	49.83
2.877	50.291
2.864	50.803
2.852	51.211
2.839	51.43
2.827	51.252
2.814	50.743
2.802	49.519
2.79	47.184
2.778	46.231
2.766	44.974
2.755	45.988
2.743	48.611
2.731	52.075
2.72	58.343
2.708	57.894
2.697	62.956
2.686	76.943
2.675	81.448
2.664	83.543
2.653	85.092
2.642	85.807
2.632	85.879
2.621	86.075
2.61	86.266
2.6	86.011
2.59	85.357
2.579	84.596
2.569	83.512
2.559	80.374
2.549	74.789
2.539	70.496
2.529	71.667
2.519	74.735
2.509	76.119
2.5	76.722
2.49	77.383
2.481	78.725
2.471	80.838
2.462	82.948
2.452	84.46
2.443	85.66
2.434	86.632
2.425	87.535
2.416	88.219
2.407	88.487
2.398	88.626
2.389	88.779
2.38	88.516
2.372	87.682
2.363	85.548
2.354	82.222
2.346	79.788
2.337	79.336
2.329	80.664
2.321	82.267
2.312	83.29
2.304	83.674
2.296	84.294
2.288	85.145
2.28	86.356
2.272	87.567
2.264	88.33
2.256	88.959
2.248	89.568
2.24	90.039
2.233	90.335
2.225	90.504
2.217	90.652
2.21	90.475
2.202	90.795
2.195	91.188
2.187	91.444
2.18	91.551
2.173	91.541
2.166	91.372
2.158	91.346
2.151	91.498
2.144	92.005
2.137	92.323
2.13	92.479
2.123	92.593
2.116	92.66
2.109	92.72
2.102	92.856
2.095	92.86
2.089	92.96
2.082	92.943
2.06	93.426
2.028	92.503
1.996	90.403
1.964	88.554
1.932	87.69
1.9	88.865
1.868	88.373
1.836	90.35
1.804	91.735
1.772	90.609
1.74	90.458
1.708	90.635
1.676	90.749
1.644	90.534
1.612	89.803
1.58	90.177
1.548	90.305
1.516	89.736
1.484	88.91
1.452	88.061
1.42	87.721
1.388	89.251
1.356	90.417
1.324	87.795
1.292	87.842
1.26	88.999
1.228	87.925
1.196	87.942
1.164	86.43
1.132	86.555
1.1	86.483
1.068	86.476
1.036	85.033
1.004	84.921
0.972	84.638
0.94	84.432
0.908	84.115
0.876	84.078
0.844	84.232
0.812	84.721
0.795	84.296
0.787	84.066
0.779	84.606
0.771	83.854
0.763	83.561
0.755	83.561
0.747	83.323
0.739	83.265
0.731	83.071
0.723	82.358
0.715	82.002
0.707	81.753
0.699	83.027
0.691	81.968
0.683	82.406
0.675	81.002
0.667	81.755
0.659	80.79
0.651	80.733
0.643	80.791
0.635	80.287
0.627	79.611
0.619	80.001
0.611	78.802
0.603	78.45
0.595	78.746
0.587	78.201
0.579	77.53
0.571	77.208
0.563	75.686
0.555	73.857
0.547	72.788
0.539	71.407
0.531	70.391
0.523	68.48
0.515	67.428
0.507	65.555
0.499	64.354
0.491	62.635
0.483	61.058
0.475	60.187
0.467	59.125
0.459	58.537
0.451	57.584
0.443	56.258
0.435	54.243
0.427	52.513
0.419	50.096
0.411	48.694
0.403	46.753
