Name: Gabbro
Type: Rocks
Class: Igneous
Subclass: Mafic
Particle Size: Solid
Sample No.: Gabbro.H1
Owner: JHU
Origin: from Escondido, San Diego County, California, via Ward's
Description: A dark gray medium-grained rock composed of plagioclase, a
Measurement: Directional (10 degree) hemispherical reflectance
X Units: Wavelength (micrometers)
Y Units: Reflectance (percent)
wavelength	value
14.0112	3.599
13.7147	3.1333
13.4304	3.2707
13.1577	3.1364
12.8959	3.4769
12.6443	3.4172
12.4023	4.0624
12.1694	4.8849
11.945	5.8212
11.7289	6.6457
11.5203	7.7343
11.3191	9.1875
11.1248	11.2163
10.937	12.7181
10.7555	13.5135
10.5799	14.3132
10.4099	14.3828
10.2454	13.5712
10.0859	13.6603
9.9313	12.7444
9.7814	11.3355
9.636	10.5267
9.4948	9.5489
9.3577	9.2447
9.2245	8.4532
9.095	8.5
8.9691	9.1186
8.8467	9.2236
8.7275	9.288
8.6116	7.6303
8.4986	6.5939
8.3886	5.8444
8.2814	4.2743
8.1769	2.7968
8.075	2.1106
7.9756	1.849
7.8786	1.7709
7.784	1.7756
7.6916	1.866
7.6014	1.9122
7.5133	2.0032
7.4272	2.1039
7.343	2.1977
7.2607	2.2727
7.1803	2.3784
7.1016	2.467
7.0246	2.5647
6.9493	2.6384
6.8755	2.6808
6.8034	2.756
6.7327	2.8141
6.6634	2.8915
6.5956	2.929
6.5292	2.9428
6.464	2.9553
6.4002	2.9538
6.3376	2.9592
6.2762	2.9653
6.216	2.9672
6.157	2.9892
6.099	3.0476
6.0421	3.0584
5.9863	3.1026
5.9315	3.1767
5.8777	3.274
5.8249	3.3808
5.773	3.4727
5.722	3.5198
5.6719	3.5916
5.6227	3.6492
5.5744	3.7164
5.5268	3.7812
5.4801	3.7959
5.4341	3.859
5.3889	3.8747
5.3445	3.9286
5.3008	3.9881
5.2578	4.0617
5.2154	4.1524
5.1738	4.2037
5.1328	4.2607
5.0925	4.3104
5.0528	4.3641
5.0137	4.462
4.9752	4.5356
4.9373	4.6664
4.9	4.7311
4.8632	4.8398
4.827	4.8992
4.7913	4.9767
4.7561	5.0714
4.7215	5.1966
4.6873	5.3116
4.6536	5.4124
4.6205	5.547
4.5877	5.6714
4.5555	5.7753
4.5237	5.8956
4.4923	6.0075
4.4614	6.0862
4.4309	6.1647
4.4008	6.2484
4.3711	6.3257
4.3418	6.4117
4.3129	6.5257
4.2844	6.6213
4.2563	6.7205
4.2285	6.8231
4.2011	6.8911
4.174	6.9581
4.1473	7.0244
4.1209	7.0688
4.0949	7.1036
4.0692	7.1657
4.0438	7.1608
4.0187	7.201
3.994	7.2283
3.9695	7.234
3.9453	7.2945
3.9214	7.3169
3.8979	7.3532
3.8746	7.3732
3.8515	7.3671
3.8288	7.4226
3.8063	7.4028
3.7841	7.4413
3.7621	7.4116
3.7404	7.4514
3.7189	7.4468
3.6977	7.4503
3.6767	7.4532
3.656	7.44
3.6355	7.4364
3.6152	7.4128
3.5951	7.421
3.5753	7.4208
3.5557	7.3903
3.5363	7.3739
3.5171	7.2478
3.4981	7.1322
3.4793	7.1212
3.4607	7.1245
3.4423	7.0411
3.4241	6.7633
3.4061	6.8226
3.3883	6.8618
3.3707	6.8555
3.3533	6.8512
3.336	6.8992
3.3189	6.8475
3.302	6.7592
3.2853	6.7387
3.2687	6.6443
3.2523	6.601
3.2361	6.5555
3.22	6.4631
3.204	6.3778
3.1883	6.3659
3.1727	6.2688
3.1572	6.2147
3.1419	6.1286
3.1268	6.0504
3.1117	5.9756
3.0969	5.9758
3.0821	5.9081
3.0675	5.8551
3.0531	5.8259
3.0388	5.7804
3.0246	5.7441
3.0105	5.7213
2.9966	5.7291
2.9828	5.6917
2.9692	5.7082
2.9556	5.6852
2.9422	5.6386
2.9289	5.6901
2.9157	5.7148
2.9027	5.7026
2.8897	5.7584
2.8769	5.7548
2.8642	5.7717
2.8516	5.8411
2.8391	5.8638
2.8267	5.8873
2.8144	5.9655
2.8022	6.0392
2.7902	6.0234
2.7782	5.9435
2.7664	5.8252
2.7546	5.8566
2.7429	5.8673
2.7314	5.9753
2.7199	6.4465
2.7085	7.2047
2.6973	7.5836
2.6861	8.1122
2.675	8.4818
2.664	8.5877
2.6531	8.6428
2.6423	8.5854
2.6315	8.5903
2.6209	8.5732
2.6103	8.5709
2.5999	8.5912
2.5895	8.579
2.5792	8.5094
2.569	8.5788
2.5588	8.4825
2.5487	8.5359
2.5388	8.5387
2.5289	8.5239
2.519	8.4881
2.5093	8.5213
2.4996	8.5181
2.49	8.5125
2.4805	8.5717
2.471	8.5029
2.4616	8.5952
2.4523	8.5786
2.4431	8.5605
2.4339	8.6224
2.4248	8.5699
2.4157	8.6196
2.4068	8.5406
2.3979	8.4755
2.389	8.5382
2.3802	8.5343
2.3715	8.6686
2.3629	8.6655
2.3543	8.6351
2.3458	8.6166
2.3373	8.5617
2.3289	8.44
2.3206	8.44
2.3123	8.4984
2.3041	8.5213
2.2959	8.6051
2.2878	8.7668
2.2798	8.8964
2.2718	8.9756
2.2638	8.9125
2.2559	8.9489
2.2481	8.9533
2.2403	9.0825
2.2326	9.1075
2.225	9.1314
2.2173	9.0829
2.2098	9.1207
2.2023	9.2057
2.1948	9.201
2.1874	9.2454
2.18	9.259
2.1727	9.2749
2.1655	9.2943
2.1583	9.3548
2.1511	9.3223
2.144	9.3605
2.1369	9.4017
2.1299	9.4223
2.1229	9.4303
2.116	9.4106
2.1091	9.509
2.1023	9.416
2.0955	9.4952
2.0887	9.6013
2.082	9.5585
2.06	9.4883
2.028	9.5425
1.996	9.6163
1.964	9.677
1.932	9.4788
1.9	9.7068
1.868	9.9118
1.836	9.9675
1.804	9.9917
1.772	10.0041
1.74	9.8678
1.708	9.7916
1.676	9.9084
1.644	9.8633
1.612	9.899
1.58	9.854
1.548	9.7402
1.516	9.5944
1.484	9.6659
1.452	9.5039
1.42	9.4721
1.388	9.1999
1.356	9.2518
1.324	9.205
1.292	9.186
1.26	8.9451
1.228	8.8897
1.196	8.603
1.164	8.6687
1.132	8.6528
1.1	8.698
1.068	8.707
1.036	8.7889
1.004	8.7931
0.972	8.9005
0.94	9.1646
0.908	9.4087
0.876	9.6186
0.844	9.9374
0.812	10.1445
0.795	10.1028
0.787	10.287
0.779	10.0989
0.771	10.3277
0.763	10.2355
0.755	10.2407
0.747	10.1572
0.739	10.1642
0.731	10.4167
0.723	10.2088
0.715	10.2106
0.707	10.1724
0.699	10.3874
0.691	10.4566
0.683	10.5342
0.675	10.4709
0.667	10.2802
0.659	10.2947
0.651	10.457
0.643	10.4633
0.635	10.4574
0.627	10.586
0.619	10.5084
0.611	10.5642
0.603	10.7362
0.595	10.5901
0.587	10.8043
0.579	10.4412
0.571	10.7545
0.563	10.5821
0.555	10.3097
0.547	10.3021
0.539	10.4384
0.531	10.479
0.523	10.5537
0.515	10.2793
0.507	10.3353
0.499	10.3883
0.491	10.1328
0.483	9.8796
0.475	9.93
0.467	10.1091
0.459	9.8267
0.451	9.8962
0.443	9.8215
0.435	9.236
0.427	9.0724
0.419	8.9766
0.411	8.8696
0.403	8.4963
