Name: Wollastonite CaSiO3
Type: Mineral
Class: Silicates
Subclass: Inosilicates (Chain Silicates); (Pyroxenoid Group)
Particle Size: Fine  (Less than 2  Micrometers)
Sample No.: wollasto.1
Owner: JHU
Wavelength Range: IR
Origin: Santa Fe Mine, Pichucalco, Chiapas, Mexico via the
Description: The sample consisted of a 2 cm x 1 cm x 0.5 cm well-
Measurement: Transmission
X Units: Wavelength (micrometers)
Y Units: Transmittance (percent)
wavelength	value
25.0442	73.6404
24.3388	76.2381
23.6719	79.9998
23.0407	74.283
22.4422	50.2694
21.8741	27.2206
21.334	33.1269
20.8199	31.1737
20.33	43.8554
19.8627	49.9022
19.4163	53.7069
18.9896	70.5018
18.5812	77.8416
18.19	79.867
17.815	68.91
17.4551	74.5867
17.1094	86.6463
16.7772	88.9783
16.4576	89.4822
16.15	88.7703
15.8537	85.407
15.568	68.4774
15.2925	82.7342
15.0265	86.8406
14.7697	81.3484
14.5214	85.5232
14.2814	90.5369
14.0492	91.8123
13.8244	92.4099
13.6067	92.51
13.3957	92.7947
13.1912	92.6174
12.9929	92.3005
12.8004	92.051
12.6135	91.7112
12.432	91.2952
12.2557	90.4944
12.0843	89.0105
11.9176	87.158
11.7555	84.5725
11.5977	80.4241
11.444	72.4647
11.2944	55.996
11.1487	32.5927
11.0067	21.9853
10.8682	27.1757
10.7332	20.8364
10.6015	27.7953
10.473	39.8095
10.3476	29.8583
10.2251	51.1434
10.1056	59.1034
9.98873	49.139
9.87458	29.476
9.763	21.8398
9.65392	23.4858
9.54724	27.2192
9.44291	31.2367
9.34082	32.9755
9.24091	26.0634
9.14312	26.3691
9.04739	42.8602
8.95363	60.0438
8.8618	71.7786
8.77183	78.3982
8.68368	82.1844
8.59727	84.8372
8.51257	86.5642
8.42951	88.1951
8.34807	89.8298
8.26819	91.3049
8.18981	92.2439
8.11292	92.9441
8.03745	93.384
7.96337	93.739
7.89064	94.0879
7.81924	94.3845
7.74911	94.697
7.68023	94.8347
7.61256	95.002
7.54608	95.2852
7.48074	95.4199
7.41653	95.4182
7.35341	95.4209
7.29136	95.3416
7.23034	94.8984
7.17033	94.9177
7.11132	94.4385
7.05327	93.9912
6.99616	93.9131
6.93996	94.1726
6.88467	94.3477
6.83024	94.4119
6.77667	94.4119
6.72393	94.3762
6.67201	94.4463
6.62089	94.7332
6.57054	94.9275
6.52095	95.2236
6.4721	95.1826
6.42398	95.1748
6.37657	95.0437
6.32986	94.7852
6.28382	94.5779
6.23845	94.5237
6.19373	94.416
6.14965	93.9695
6.10619	93.7129
6.06334	94.1462
6.02109	95.1677
5.97942	96.3044
5.93832	96.1824
5.89778	95.9265
5.8578	96.0281
5.81835	96.2803
5.77943	96.3301
5.74103	96.4382
5.70314	96.6257
5.66574	96.6648
5.62883	96.7058
5.5924	96.6443
5.55644	96.6846
5.52093	96.6602
5.48588	96.7288
5.45127	96.7712
5.41709	96.821
5.38334	96.71
5.35	96.7666
5.31708	96.6965
5.28456	96.5681
5.25243	96.3975
5.2207	96.4392
5.18934	96.4463
5.15836	96.5166
5.12775	96.5789
5.09749	96.5352
5.0676	96.5801
5.03805	96.5496
5.00884	96.6345
4.97998	96.636
4.95144	96.6833
4.92322	96.6882
4.89533	96.6311
4.86775	96.7078
4.84048	96.656
4.81351	96.6999
4.78684	96.6633
4.76047	96.697
4.73439	96.7009
4.70859	96.6423
4.68306	96.7146
4.65782	96.7253
4.63284	96.783
4.60814	96.8494
4.58369	96.6975
4.5595	96.677
4.53557	96.655
4.51188	96.5374
4.48845	96.4622
4.46525	96.4236
4.44229	96.3943
4.41957	96.408
4.39708	96.3249
4.37481	96.3582
4.35277	96.303
4.33096	96.28
4.30935	96.1062
4.28797	96.1692
4.26679	96.0652
4.24583	96.0764
4.22506	96.0642
4.2045	96.0271
4.18414	95.9802
4.16398	96.0276
4.14401	95.9226
4.12423	95.9377
4.10464	95.929
4.08523	95.8113
4.066	95.8796
4.04696	95.7776
4.02809	95.8347
4.0094	95.7073
3.99088	95.7058
3.97253	95.5769
3.95435	95.6663
3.93634	95.5842
3.91848	95.5613
3.90079	95.5725
3.88326	95.4021
3.86589	95.3396
3.84867	95.3015
3.8316	95.24
3.81468	95.1189
3.79791	95.156
3.78129	95.0291
3.76482	95.0022
3.74848	94.8459
3.73229	94.8049
3.71624	94.762
3.70032	94.5569
3.68454	94.5447
3.6689	94.4949
3.65338	94.3962
3.638	94.2991
3.62275	94.1799
3.60762	94.1375
3.59262	94.1453
3.57775	94.053
3.56299	93.8948
3.54836	93.8303
3.53385	93.8162
3.51945	93.6272
3.50517	93.6306
3.49101	93.5671
3.47696	93.3718
3.46303	93.2888
3.4492	93.2424
3.43549	93.1956
3.42188	93.1306
3.40838	93.0291
3.39499	92.8772
3.38171	92.8435
3.36852	92.8669
3.35544	92.8279
3.34246	92.6951
3.32958	92.6506
3.3168	92.5291
3.30411	92.4275
3.29153	92.4573
3.27903	92.2009
3.26664	92.2151
3.25433	92.0335
3.24212	92.0432
3.23	91.844
3.21797	91.8513
3.20603	91.6677
3.19418	91.5681
3.18241	91.3757
3.17074	91.1921
3.15914	91.0955
3.14763	90.8865
3.13621	90.7166
3.12487	90.5857
3.11361	90.4773
3.10243	90.0203
3.09133	89.7547
3.0803	89.4968
3.06936	89.3992
3.0585	88.9978
3.04771	88.9509
3.037	88.697
3.02636	88.3718
3.0158	88.0759
3.00531	87.5681
2.99489	87.3552
2.98454	86.7351
2.97427	86.0301
2.96407	85.5447
2.95393	84.9754
2.94387	84.5769
2.93387	84.3289
2.92394	84.0711
2.91408	83.9529
2.90429	83.99
2.89456	84.0017
2.88489	84.24
2.87529	84.2117
2.86576	84.2888
2.85628	84.5515
2.84687	84.9627
2.83752	85.281
2.82823	85.6306
2.81901	86.2713
2.80984	86.7947
2.80073	87.2713
2.79168	87.6609
2.78269	88.3767
2.77376	88.9802
2.76488	89.5593
2.75606	90.1677
2.7473	90.864
2.73859	91.0711
2.72994	91.1716
2.72134	91.2029
2.7128	91.3875
2.70431	91.575
2.69587	91.5906
2.68748	91.6599
2.67915	91.6306
2.67087	91.6961
2.66264	91.5447
2.65446	91.5584
2.64633	91.3748
2.63825	91.3875
2.63021	91.3054
2.62223	91.1834
2.6143	91.1677
2.60641	91.117
2.59857	91.1365
2.59078	91.0086
2.58304	91.1209
2.57534	90.7351
2.56768	90.7322
2.56008	90.8162
2.55251	90.6541
2.54499	90.4236
2.53752	90.6306
2.53009	90.5759
2.5227	90.1814
2.51536	90.2205
2.50806	90.0974
2.5008	90.1209
2.49358	90.2283
2.4864	89.9685
2.47927	90.0759
2.47218	89.8103
2.46512	89.7576
2.45811	89.8162
2.45114	89.7146
2.4442	89.6267
2.43731	89.4666
2.43045	89.2771
2.42363	89.1189
2.41685	89.5701
2.41011	89.3298
2.40341	88.9295
2.39674	89.0017
2.39011	88.8924
2.38352	88.781
2.37696	88.781
2.37044	88.9216
2.36395	88.8787
2.35751	88.6248
2.35109	88.7263
2.34471	88.408
2.33836	88.4998
2.33205	87.9939
2.32578	88.3943
2.31953	88.322
2.31332	88.2107
2.30714	87.8045
2.301	88.197
2.29489	88.0642
2.28881	88.0232
2.28276	87.8533
2.27675	87.7888
2.27076	87.6092
2.26481	88.0037
2.25889	87.3435
2.253	87.8045
2.24714	87.492
2.24131	87.4549
2.23551	87.4861
2.22974	87.4529
2.224	87.1795
2.21829	87.5545
2.21261	87.3299
2.20696	86.9607
2.20134	87.1482
2.19574	87.3357
2.19018	86.8142
2.18464	86.7185
2.17913	86.6717
2.17365	87.1482
2.16819	87.1404
2.16277	87.1248
2.15737	86.656
2.15199	86.4334
2.14665	86.7107
2.14133	86.3357
2.13603	86.7029
2.13077	86.8162
2.12552	86.3787
2.12031	86.8045
2.11512	86.3592
2.10995	86.2927
2.10481	86.7576
2.0997	86.4334
2.09461	86.7107
2.08954	86.1482
2.0845	86.7224
2.07948	86.1912
