Name: Microcline KAlSi3O8
Type: Mineral
Class: Silicates
Subclass: Tectosilicates (Framework Silicates); (Feldspar Group)
Particle Size: Coarse  (75-250 micrometers)
Sample No.: micro.1
Owner: JHU
Wavelength Range: IR
Origin: Park County, Colorado via the Smithsonian (sample no. NMNH
Description: Sample was a 19.5 g fragment, light green in color. A
Measurement: Bidirectional reflectance
X Units: Wavelength (micrometers)
Y Units: Reflectance (percent)
wavelength	value
25.0442	3.6352
24.3388	3.8608
23.6719	6.4507
23.0407	5.4502
22.4422	5.2588
21.8741	4.4009
21.334	3.655
20.8199	3.0122
20.33	2.189
19.8627	2.1914
19.4163	2.3491
18.9896	2.7102
18.5812	3.2703
18.19	2.282
17.815	2.6023
17.4551	3.1782
17.1094	4.0303
16.7772	4.5432
16.4576	4.48
16.15	3.3616
15.8537	1.9624
15.568	1.7666
15.2925	2.5522
15.0265	1.8489
14.7697	1.6135
14.5214	1.7427
14.2814	1.8874
14.0492	2.0464
13.8244	2.3091
13.6067	2.1079
13.3957	1.8965
13.1912	1.9963
12.9929	2.272
12.8004	1.6001
12.6135	1.5576
12.432	1.6511
12.2557	1.8398
12.0843	2.0413
11.9176	2.0703
11.7555	2.1155
11.5977	2.1201
11.444	2.1909
11.2944	2.2163
11.1487	2.2607
11.0067	2.3484
10.8682	2.418
10.7332	2.4985
10.6015	2.647
10.473	2.8535
10.3476	3.1418
10.2251	3.6357
10.1056	4.5503
9.98873	5.782
9.87458	6.6885
9.763	6.2195
9.65392	6.5447
9.54724	6.8201
9.44291	6.6767
9.34082	5.8767
9.24091	6.155
9.14312	6.1838
9.04739	5.0669
8.95363	4.7244
8.8618	5.3945
8.77183	6.2444
8.68368	6.6728
8.59727	6.8686
8.51257	6.8017
8.42951	6.7766
8.34807	6.5788
8.26819	5.7895
8.18981	4.6702
8.11292	3.5549
8.03745	2.4878
7.96337	1.5332
7.89064	0.8257
7.81924	0.4233
7.74911	0.3193
7.68023	0.375
7.61256	0.4595
7.54608	0.5452
7.48074	0.6277
7.41653	0.6968
7.35341	0.7427
7.29136	0.8201
7.23034	0.9019
7.17033	0.9915
7.11132	1.1189
7.05327	1.2102
6.99616	1.2429
6.93996	1.2549
6.88467	1.3218
6.83024	1.312
6.77667	1.2954
6.72393	1.3445
6.67201	1.417
6.62089	1.4446
6.57054	1.4731
6.52095	1.4961
6.4721	1.4766
6.42398	1.4512
6.37657	1.4102
6.32986	1.3547
6.28382	1.3249
6.23845	1.2952
6.19373	1.2988
6.14965	1.3518
6.10619	1.4463
6.06334	1.522
6.02109	1.5688
5.97942	1.5847
5.93832	1.5405
5.89778	1.5056
5.8578	1.4853
5.81835	1.4443
5.77943	1.4021
5.74103	1.3853
5.70314	1.356
5.66574	1.2991
5.62883	1.3228
5.5924	1.4094
5.55644	1.4275
5.52093	1.6321
5.48588	1.8557
5.45127	1.9123
5.41709	2.0166
5.38334	2.1648
5.35	2.271
5.31708	2.4018
5.28456	2.4739
5.25243	2.5437
5.2207	2.6916
5.18934	3.1074
5.15836	3.5281
5.12775	4.0102
5.09749	4.6174
5.0676	4.9961
5.03805	5.0264
5.00884	5.4158
4.97998	5.6142
4.95144	5.5002
4.92322	5.3013
4.89533	5.3962
4.86775	5.7336
4.84048	5.8552
4.81351	5.7368
4.78684	5.5166
4.76047	5.5637
4.73439	5.7712
4.70859	5.6164
4.68306	5.5422
4.65782	5.6225
4.63284	5.8618
4.60814	6.206
4.58369	6.487
4.5595	6.8943
4.53557	7.3874
4.51188	7.8249
4.48845	8.239
4.46525	8.6765
4.44229	9.0586
4.41957	9.3252
4.39708	9.6147
4.37481	9.9529
4.35277	10.261
4.33096	10.5937
4.30935	10.8786
4.28797	11.0783
4.26679	10.821
4.24583	11.5415
4.22506	11.7829
4.2045	12.0652
4.18414	12.2031
4.16398	12.2937
4.14401	12.3493
4.12423	12.3957
4.10464	12.4341
4.08523	12.4714
4.066	12.4944
4.04696	12.5139
4.02809	12.5258
4.0094	12.5317
3.99088	12.5427
3.97253	12.5703
3.95435	12.5898
3.93634	12.6215
3.91848	12.6465
3.90079	12.6892
3.88326	12.6911
3.86589	12.7329
3.84867	12.8047
3.8316	12.8611
3.81468	12.925
3.79791	12.967
3.78129	12.9956
3.76482	13.031
3.74848	13.0576
3.73229	13.093
3.71624	13.1018
3.70032	13.1313
3.68454	13.144
3.6689	13.1594
3.65338	13.1799
3.638	13.1975
3.62275	13.2038
3.60762	13.198
3.59262	13.195
3.57775	13.1884
3.56299	13.1635
3.54836	13.1518
3.53385	13.1233
3.51945	13.0869
3.50517	13.0317
3.49101	12.9951
3.47696	12.9665
3.46303	12.9211
3.4492	12.8637
3.43549	12.789
3.42188	12.6985
3.40838	12.6157
3.39499	12.5908
3.38171	12.5139
3.36852	12.4494
3.35544	12.3466
3.34246	12.2981
3.32958	12.205
3.3168	12.0742
3.30411	11.9922
3.29153	11.8818
3.27903	11.7509
3.26664	11.633
3.25433	11.4953
3.24212	11.3698
3.23	11.2346
3.21797	11.0971
3.20603	10.9475
3.19418	10.8051
3.18241	10.666
3.17074	10.5261
3.15914	10.3796
3.14763	10.2409
3.13621	10.0984
3.12487	9.9626
3.11361	9.8391
3.10243	9.7436
3.09133	9.6355
3.0803	9.5503
3.06936	9.4631
3.0585	9.3974
3.04771	9.3489
3.037	9.2898
3.02636	9.2229
3.0158	9.1645
3.00531	9.0761
2.99489	9.0066
2.98454	8.9509
2.97427	8.8847
2.96407	8.8086
2.95393	8.7734
2.94387	8.7356
2.93387	8.7224
2.92394	8.7248
2.91408	8.7456
2.90429	8.7878
2.89456	8.8471
2.88489	8.9243
2.87529	8.9809
2.86576	9.092
2.85628	9.1821
2.84687	9.2837
2.83752	9.4021
2.82823	9.4907
2.81901	9.6054
2.80984	9.7671
2.80073	9.9358
2.79168	10.1194
2.78269	10.3012
2.77376	10.5444
2.76488	10.7793
2.75606	11.0412
2.7473	11.3405
2.73859	11.7282
2.72994	12.1811
2.72134	12.5952
2.7128	12.9526
2.70431	13.2133
2.69587	13.3935
2.68748	13.5778
2.67915	13.6862
2.67087	13.74
2.66264	13.8772
2.65446	13.9257
2.64633	13.9602
2.63825	13.9348
2.63021	13.967
2.62223	13.9904
2.6143	13.9973
2.60641	14.0197
2.59857	14.0305
2.59078	14.0341
2.58304	14.038
2.57534	14.0561
2.56768	14.03
2.56008	14.0175
2.55251	14.0288
2.54499	14.0415
2.53752	14.042
2.53009	14.0556
2.5227	14.0122
2.51536	14.0166
2.50806	14.0166
2.5008	14.0451
2.49358	14.0114
2.4864	14.0175
2.47927	14.0254
2.47218	14.0337
2.46512	13.9756
2.45811	14.0107
2.45114	14.0171
2.4442	13.9629
2.43731	13.9817
2.43045	13.9863
2.42363	14.0036
2.41685	14.018
2.41011	14.0131
2.40341	14.0356
2.39674	13.9895
2.39011	13.9646
2.38352	13.9714
2.37696	13.9843
2.37044	13.9731
2.36395	13.9821
2.35751	13.9301
2.35109	13.9897
2.34471	13.9858
2.33836	13.9428
2.33205	13.873
2.32578	13.8964
2.31953	13.872
2.31332	13.9189
2.30714	13.9135
2.301	13.864
2.29489	13.8711
2.28881	13.8786
2.28276	13.8586
2.27675	13.863
2.27076	13.8422
2.26481	13.8564
2.25889	13.8979
2.253	13.8493
2.24714	13.8501
2.24131	13.8325
2.23551	13.8711
2.22974	13.8518
2.224	13.8149
2.21829	13.8296
2.21261	13.8337
2.20696	13.8447
2.20134	13.7973
2.19574	13.8715
2.19018	13.8342
2.18464	13.7822
2.17913	13.7785
2.17365	13.7732
2.16819	13.8335
2.16277	13.8637
2.15737	13.8208
2.15199	13.8237
2.14665	13.832
2.14133	13.8098
2.13603	13.77
2.13077	13.8066
2.12552	13.8325
2.12031	13.8391
2.11512	13.8154
2.10995	13.8344
2.10481	13.8232
2.0997	13.8657
2.09461	13.8476
2.08954	13.8305
2.0845	13.8315
2.07948	13.8256
