Name: 64801.34
Type: Soil
Class: Lunar
Subclass: Highlands
Particle Size: Fine
Sample No.: 64801.34
Owner: JHU
Origin: Apollo 16 landing site via the NASA Lunar Sample Repository at Johnson
Description: This sample is one of a suite of relatively more aluminous soils
Measurement: Directional (10 degree) hemispherical reflectance
X Units: Wavelength (micrometers)
Y Units: Reflectance (percent)
wavelength	value
14.011	0.6361
13.788	0.6989
13.571	0.8464
13.361	0.9891
13.158	1.0133
12.96	1.1238
12.769	1.3401
12.583	1.7234
12.402	2.0765
12.227	2.2069
12.056	2.1389
11.89	2.0478
11.729	2.0169
11.572	2.0175
11.419	2.0222
11.27	1.977
11.125	1.9727
10.983	1.9571
10.846	1.9881
10.711	1.9225
10.58	1.8343
10.452	1.7278
10.327	1.5682
10.205	1.4069
10.086	1.3382
9.97	1.2767
9.856	1.2391
9.745	1.229
9.636	1.1566
9.53	1.0893
9.426	1.0231
9.324	0.9897
9.225	0.9987
9.127	1.0281
9.032	1.0425
8.938	0.9704
8.847	0.9399
8.757	0.9312
8.669	0.8832
8.583	0.7875
8.499	0.696
8.416	0.5835
8.335	0.4471
8.255	0.3504
8.177	0.4002
8.1	0.4785
8.025	0.7363
7.951	1.0891
7.879	1.5674
7.808	2.0975
7.737	2.6813
7.669	3.3597
7.601	3.9866
7.535	4.614
7.47	5.2488
7.406	5.8701
7.343	6.4737
7.281	7.0322
7.22	7.5633
7.16	8.0835
7.102	8.5183
7.044	8.9441
6.987	9.3646
6.931	9.7107
6.875	9.9689
6.821	10.173
6.768	10.542
6.715	10.754
6.663	10.925
6.612	11.11
6.562	11.332
6.513	11.59
6.464	11.794
6.416	11.882
6.369	12.032
6.322	12.108
6.276	12.247
6.231	12.361
6.186	12.452
6.142	12.669
6.099	12.853
6.056	12.964
6.014	13.276
5.973	13.788
5.931	14.322
5.891	14.926
5.851	15.583
5.812	16.178
5.773	16.698
5.735	17.176
5.697	17.463
5.66	17.724
5.623	18.074
5.586	18.358
5.551	18.531
5.515	18.584
5.48	18.604
5.446	18.739
5.411	19.042
5.378	19.468
5.345	19.865
5.312	20.214
5.279	20.592
5.247	21.025
5.215	21.437
5.184	21.911
5.153	22.408
5.123	22.981
5.093	23.515
5.063	23.98
5.033	24.48
5.004	25.023
4.975	25.522
4.947	26.011
4.919	26.544
4.891	26.987
4.863	27.441
4.836	27.874
4.809	28.293
4.782	28.63
4.756	28.991
4.73	29.38
4.704	29.79
4.679	30.162
4.654	30.497
4.629	30.926
4.604	31.363
4.58	31.706
4.556	32.007
4.532	32.286
4.508	32.509
4.485	32.676
4.461	32.821
4.439	32.915
4.416	32.982
4.393	33.091
4.371	33.215
4.349	33.386
4.327	33.517
4.306	33.663
4.284	33.824
4.263	33.942
4.242	34.038
4.222	34.114
4.201	34.165
4.181	34.206
4.161	34.232
4.141	34.253
4.121	34.272
4.101	34.28
4.082	34.298
4.063	34.317
4.044	34.317
4.025	34.354
4.006	34.36
3.988	34.366
3.97	34.36
3.951	34.358
3.933	34.323
3.916	34.278
3.898	34.245
3.88	34.223
3.863	34.197
3.846	34.137
3.829	34.079
3.812	34.053
3.795	33.974
3.779	33.921
3.762	33.846
3.746	33.753
3.73	33.682
3.714	33.617
3.698	33.54
3.682	33.405
3.666	33.338
3.651	33.264
3.636	33.196
3.62	33.123
3.605	32.992
3.59	32.921
3.575	32.801
3.561	32.725
3.546	32.58
3.531	32.445
3.517	32.136
3.503	31.411
3.489	31.568
3.475	31.558
3.461	31.557
3.447	31.261
3.433	30.791
3.42	29.969
3.406	30.207
3.393	30.829
3.38	30.5
3.366	30.657
3.353	31.057
3.34	31.106
3.327	31.023
3.315	30.946
3.302	30.858
3.289	30.76
3.277	30.666
3.265	30.533
3.252	30.427
3.24	30.324
3.228	30.206
3.216	30.11
3.204	29.984
3.192	29.823
3.18	29.79
3.169	29.65
3.157	29.526
3.146	29.449
3.134	29.342
3.123	29.238
3.112	29.163
3.101	29.054
3.09	28.94
3.079	28.866
3.067	28.763
3.057	28.69
3.046	28.651
3.035	28.612
3.025	28.507
3.014	28.417
3.004	28.334
2.993	28.255
2.983	28.201
2.973	28.181
2.962	28.087
2.952	28.034
2.942	28.005
2.932	27.99
2.922	27.943
2.912	27.894
2.903	27.898
2.893	27.87
2.883	27.913
2.874	27.897
2.864	27.918
2.855	27.878
2.845	27.873
2.836	27.917
2.827	27.942
2.817	28.014
2.808	28.084
2.799	28.264
2.79	28.459
2.781	28.653
2.772	28.833
2.763	29.172
2.755	29.43
2.746	29.873
2.737	30.118
2.728	30.372
2.72	30.489
2.711	30.633
2.703	30.902
2.695	30.9
2.686	30.993
2.678	30.927
2.67	30.854
2.661	31.005
2.653	30.967
2.645	30.978
2.637	30.947
2.629	30.821
2.621	30.764
2.613	30.826
2.605	30.579
2.597	30.689
2.59	30.679
2.582	30.574
2.574	30.522
2.566	30.529
2.559	30.464
2.551	30.429
2.544	30.373
2.536	30.302
2.529	30.286
2.522	30.223
2.514	30.196
2.507	30.127
2.5	30.1
2.492	30.017
2.485	29.995
2.478	29.915
2.471	29.891
2.464	29.84
2.457	29.796
2.45	29.778
2.443	29.676
2.436	29.621
2.429	29.584
2.422	29.574
2.416	29.491
2.409	29.448
2.402	29.38
2.396	29.386
2.389	29.283
2.382	29.28
2.376	29.199
2.369	29.162
2.363	29.073
2.356	29.055
2.35	29.028
2.344	28.969
2.337	28.875
2.331	28.85
2.325	28.746
2.318	28.787
2.312	28.731
2.306	28.637
2.3	28.603
2.294	28.58
2.288	28.488
2.282	28.422
2.276	28.407
2.27	28.396
2.264	28.342
2.258	28.273
2.252	28.207
2.246	28.178
2.24	28.118
2.235	28.073
2.229	28.002
2.223	28.036
2.217	27.908
2.212	27.905
2.206	27.857
2.2	27.824
2.195	27.77
2.189	27.714
2.184	27.702
2.178	27.61
2.173	27.614
2.167	27.569
2.162	27.575
2.156	27.482
2.151	27.441
2.146	27.399
2.14	27.327
2.135	27.323
2.13	27.29
2.125	27.241
2.119	27.184
2.114	27.087
2.109	27.111
2.104	27.092
2.099	27.024
2.094	27.011
2.089	26.897
2.084	26.946
