Name: Heulandite (Na,Ca)2-3Al3(Al,Si)2Si13O36.12H2O
Type: Mineral
Class: Silicates
Subclass: Tectosilicates (Zeolite Group)
Particle Size: Fine  (0-74 micrometers)
Sample No.: heulan.2
Owner: JHU
Wavelength Range: IR
Origin: Gobel, Oregon via Joe Taggart, USGS, Denver, Colorado.
Description: The sample is composed of 1 cm diameter, pearly,
Measurement: Bidirectional reflectance
X Units: Wavelength (micrometers)
Y Units: Transmittance (percent)
wavelength	value
25.044	0.7978
24.339	0.7695
23.672	0.7212
23.041	0.7798
22.442	0.8188
21.874	0.8833
21.334	0.937
20.82	0.897
20.33	0.7385
19.863	0.582
19.416	0.4905
18.99	0.4749
18.581	0.4099
18.19	0.4019
17.815	0.4229
17.455	0.4341
17.109	0.4443
16.777	0.4431
16.458	0.4246
16.15	0.4194
15.854	0.4277
15.568	0.4585
15.292	0.4983
15.027	0.5225
14.77	0.5352
14.521	0.5637
14.281	0.5725
14.049	0.5649
13.824	0.5437
13.607	0.5457
13.396	0.5918
13.191	0.667
12.993	0.7192
12.8	0.73
12.614	0.759
12.432	0.9727
12.256	1.479
12.084	2.0068
11.918	2.3332
11.755	2.5242
11.598	2.6299
11.444	2.6794
11.294	2.6787
11.149	2.6062
11.007	2.4419
10.868	2.1811
10.733	1.8096
10.602	1.3848
10.473	1.0591
10.348	0.8811
10.225	0.8052
10.106	0.781
9.989	0.7827
9.875	0.7788
9.763	0.7717
9.654	0.7683
9.547	0.7842
9.443	0.8269
9.341	0.8826
9.241	0.8965
9.143	0.8669
9.047	0.8132
8.954	0.7624
8.862	0.7229
8.772	0.6968
8.684	0.6665
8.597	0.645
8.513	0.6602
8.43	0.6968
8.348	0.7263
8.268	0.7419
8.19	0.7622
8.113	0.6431
8.037	0.4128
7.963	0.2393
7.891	0.1697
7.819	0.1897
7.749	0.2771
7.68	0.4209
7.613	0.6062
7.546	0.8201
7.481	1.0432
7.417	1.2649
7.353	1.4753
7.291	1.6702
7.23	1.852
7.17	2.0137
7.111	2.1619
7.053	2.2822
6.996	2.3962
6.94	2.5068
6.885	2.6081
6.83	2.7051
6.777	2.7927
6.724	2.8601
6.672	2.8965
6.621	2.9131
6.571	2.9016
6.521	2.8862
6.472	2.8374
6.424	2.7307
6.377	2.5659
6.33	2.2869
6.284	1.8384
6.238	1.2734
6.194	0.8035
6.15	0.5608
6.106	0.5154
6.063	0.6309
6.021	0.876
5.979	1.2253
5.938	1.7266
5.898	2.3948
5.858	3.0981
5.818	3.6843
5.779	4.1445
5.741	4.4683
5.703	4.6985
5.666	4.8645
5.629	4.9863
5.592	5.1003
5.556	5.2207
5.521	5.3723
5.486	5.5535
5.451	5.7622
5.417	5.9582
5.383	6.1218
5.35	6.25
5.317	6.3779
5.285	6.4768
5.252	6.572
5.221	6.6626
5.189	6.7439
5.158	6.8386
5.128	6.9651
5.097	7.123
5.068	7.2959
5.038	7.4773
5.009	7.6374
4.98	7.7688
4.951	7.8608
4.923	7.8996
4.895	7.9187
4.868	7.9109
4.84	7.8874
4.814	7.8616
4.787	7.8371
4.76	7.8179
4.734	7.8059
4.709	7.7961
4.683	7.7881
4.658	7.7886
4.633	7.7966
4.608	7.8174
4.584	7.8545
4.56	7.9099
4.536	7.9868
4.512	8.0888
4.488	8.2163
4.465	8.372
4.442	8.5598
4.42	8.7688
4.397	8.9985
4.375	9.2431
4.353	9.4958
4.331	9.7539
4.309	10.0188
4.288	10.2871
4.267	10.5363
4.246	10.7844
4.225	11.0305
4.205	11.2243
4.184	11.4289
4.164	11.6252
4.144	11.8071
4.124	11.9731
4.105	12.1289
4.085	12.2761
4.066	12.4091
4.047	12.5244
4.028	12.6142
4.009	12.6831
3.991	12.7282
3.973	12.7658
3.954	12.7878
3.936	12.7898
3.918	12.7744
3.901	12.7387
3.883	12.6799
3.866	12.603
3.849	12.5068
3.832	12.393
3.815	12.2617
3.798	12.1176
3.781	11.9594
3.765	11.7888
3.748	11.604
3.732	11.4106
3.716	11.2043
3.7	10.9858
3.685	10.758
3.669	10.5205
3.653	10.2739
3.638	10.0183
3.623	9.7556
3.608	9.487
3.593	9.2138
3.578	8.936
3.563	8.6499
3.548	8.3586
3.534	8.0581
3.519	7.7397
3.505	7.4013
3.491	7.1179
3.477	6.8281
3.463	6.53
3.449	6.22
3.435	5.9101
3.422	5.5947
3.408	5.3113
3.395	5.0525
3.382	4.7893
3.369	4.5373
3.355	4.2952
3.342	4.0581
3.33	3.8286
3.317	3.6111
3.304	3.4018
3.292	3.2048
3.279	3.0176
3.267	2.8389
3.254	2.6714
3.242	2.5132
3.23	2.3623
3.218	2.2185
3.206	2.0832
3.194	1.9568
3.182	1.8386
3.171	1.7261
3.159	1.6216
3.148	1.5269
3.136	1.4409
3.125	1.3669
3.114	1.3044
3.102	1.2581
3.091	1.229
3.08	1.2104
3.069	1.1965
3.058	1.178
3.048	1.1555
3.037	1.1306
3.026	1.1028
3.016	1.0725
3.005	1.0383
2.995	1.0046
2.985	0.9722
2.974	0.9443
2.964	0.9214
2.954	0.9021
2.944	0.8882
2.934	0.8804
2.924	0.8777
2.914	0.8752
2.904	0.8762
2.895	0.8767
2.885	0.8794
2.875	0.8799
2.866	0.8784
2.856	0.8794
2.847	0.8782
2.838	0.8767
2.828	0.8789
2.819	0.8796
2.81	0.8816
2.801	0.8813
2.792	0.8806
2.783	0.8826
2.774	0.8994
2.765	0.9385
2.756	1.0269
2.747	1.2163
2.739	1.5554
2.73	2.1392
2.721	2.9768
2.713	3.968
2.704	4.9624
2.696	5.8789
2.687	6.6765
2.679	7.3144
2.671	7.8371
2.663	8.3838
2.654	8.7788
2.646	9.1054
2.638	9.3852
2.63	9.5835
2.622	9.7859
2.614	9.9397
2.606	10.0315
2.599	10.1518
2.591	10.2246
2.583	10.2739
2.575	10.3344
2.568	10.3955
2.56	10.4507
2.553	10.5195
2.545	10.602
2.538	10.6875
2.53	10.7832
2.523	10.8864
2.515	10.9973
2.508	11.1159
2.501	11.2407
2.494	11.3691
2.486	11.4909
2.479	11.6062
2.472	11.7168
2.465	11.8222
2.458	11.9355
2.451	12.0539
2.444	12.1938
2.437	12.3569
2.43	12.5488
2.424	12.7683
2.417	13.0083
2.41	13.2719
2.403	13.5488
2.397	13.8413
2.39	14.1372
2.384	14.435
2.377	14.7348
2.37	15.0337
2.364	15.33
2.358	15.6079
2.351	15.8662
2.345	16.0986
2.338	16.3193
2.332	16.5112
2.326	16.684
2.32	16.8369
2.313	16.9711
2.307	17.0864
2.301	17.1948
2.295	17.2861
2.289	17.3779
2.283	17.455
2.277	17.5166
2.271	17.5771
2.265	17.6296
2.259	17.6738
2.253	17.7109
2.247	17.7348
2.241	17.7421
2.236	17.7575
2.23	17.7568
2.224	17.7504
2.218	17.7478
2.213	17.746
2.207	17.7338
2.201	17.7402
2.196	17.7307
2.19	17.726
2.185	17.7307
2.179	17.7197
2.174	17.7143
2.168	17.7031
2.163	17.6877
2.157	17.6723
2.152	17.6552
2.147	17.6359
2.141	17.6103
2.136	17.5839
2.131	17.5605
2.126	17.5285
2.12	17.4943
2.115	17.4541
2.11	17.4091
2.105	17.3613
2.1	17.3127
2.095	17.269
2.09	17.2231
2.085	17.1701
2.079	17.1262
