Name: Dark yellowish brown micaceous loam
Type: Soils
Class: Inceptisol
Subclass: Dystrochrept
Particle Size: see additional information
Sample No.: 88P2535
Owner: JHU
Origin: Howard Co., Md. via USDA Soil Conservation service.
Description: The parent material is schist and phyllite.  Dark
Measurement: Directional (10 degree) hemispherical reflectance
X Units: Wavelength (micrometers)
Y Units: Reflectance (percent)
wavelength	value
14.011	1.6401
13.715	1.8447
13.43	1.8442
13.158	1.8789
12.896	2.2402
12.644	2.0334
12.402	1.8462
12.169	1.9338
11.945	2.3718
11.729	2.8862
11.52	3.081
11.319	3.0945
11.125	3.1409
10.937	2.9822
10.756	2.8186
10.58	2.9836
10.41	3.5229
10.245	3.9614
10.086	4.3982
9.931	5.2993
9.781	5.5029
9.636	6.9953
9.495	7.1118
9.358	7.9367
9.225	7.9599
9.095	6.8247
8.969	5.7761
8.847	6.4275
8.727	5.6853
8.612	4.4055
8.499	5.3569
8.389	5.5517
8.281	6.0947
8.177	6.2585
8.075	4.699
7.976	3.4224
7.879	2.6345
7.784	2.3498
7.692	2.29
7.601	2.228
7.513	2.2224
7.427	2.26
7.343	2.2952
7.261	2.3916
7.18	2.4768
7.102	2.6306
7.025	2.6855
6.949	2.9607
6.875	3.1643
6.803	3.4267
6.733	3.6831
6.663	3.7234
6.596	3.6406
6.529	3.6538
6.464	3.81
6.4	3.7217
6.338	3.5295
6.276	3.1902
6.216	2.876
6.157	2.6543
6.099	2.624
6.042	2.6975
5.986	2.9622
5.931	3.3411
5.878	4.0271
5.825	4.8423
5.773	5.5793
5.722	6.2502
5.672	6.5476
5.623	6.3149
5.574	6.3401
5.527	6.5972
5.48	6.8833
5.434	7.2676
5.389	6.7488
5.345	6.3816
5.301	6.8291
5.258	7.6091
5.215	8.7368
5.174	9.1455
5.133	9.3586
5.093	9.6511
5.053	9.7485
5.014	9.9677
4.975	10.5825
4.937	11.5608
4.9	12.8288
4.863	14.3454
4.827	15.1718
4.791	15.7744
4.756	16.2766
4.721	16.5961
4.687	16.5463
4.654	17.1767
4.62	17.9785
4.588	18.4887
4.556	18.8078
4.524	18.6835
4.492	18.25
4.461	18.3454
4.431	18.8779
4.401	19.3374
4.371	19.9133
4.342	20.248
4.313	20.4055
4.284	20.2941
4.256	20.5502
4.229	20.5397
4.201	20.6906
4.174	20.7697
4.147	20.8017
4.121	20.8029
4.095	20.812
4.069	20.7497
4.044	20.6594
4.019	20.54
3.994	20.3771
3.97	20.2478
3.945	20.1271
3.921	19.9335
3.898	19.7126
3.875	19.4152
3.852	19.0266
3.829	18.7255
3.806	18.332
3.784	17.906
3.762	17.4697
3.74	16.9379
3.719	16.5051
3.698	16.0207
3.677	15.6897
3.656	15.1772
3.636	14.7961
3.615	14.3335
3.595	13.865
3.575	13.3991
3.556	12.9057
3.536	12.4082
3.517	11.7404
3.498	11.1018
3.479	10.8261
3.461	10.4724
3.442	9.9172
3.424	9.3608
3.406	9.0322
3.388	8.9477
3.371	8.6902
3.353	8.5383
3.336	8.3379
3.319	8.0278
3.302	7.6782
3.285	7.3581
3.269	6.9958
3.252	6.7251
3.236	6.4289
3.22	6.2034
3.204	5.9746
3.188	5.7795
3.173	5.5779
3.157	5.4451
3.142	5.2517
3.127	5.1675
3.112	5.0559
3.097	4.9617
3.082	4.9045
3.067	4.8891
3.053	4.8511
3.039	4.8369
3.025	4.7541
3.011	4.8015
2.997	4.689
2.983	4.6833
2.969	4.6013
2.956	4.5742
2.942	4.5867
2.929	4.5019
2.916	4.5393
2.903	4.4485
2.89	4.4756
2.877	4.511
2.864	4.6807
2.852	4.6843
2.839	4.5791
2.827	4.6113
2.814	4.581
2.802	4.4714
2.79	4.3015
2.778	3.6667
2.766	2.9888
2.755	2.5686
2.743	2.9783
2.731	3.1184
2.72	3.8545
2.708	3.7871
2.697	5.0261
2.686	11.4968
2.675	17.121
2.664	20.4973
2.653	23.0942
2.642	24.8024
2.632	25.9164
2.621	26.8652
2.61	27.6467
2.6	28.287
2.59	28.6178
2.579	29.1545
2.569	29.4428
2.559	29.9938
2.549	30.3073
2.539	30.6081
2.529	30.934
2.519	31.1259
2.509	31.3822
2.5	31.5937
2.49	31.759
2.481	32.1291
2.471	32.6335
2.462	32.8012
2.452	33.1144
2.443	33.3561
2.434	33.83
2.425	34.5319
2.416	35.0583
2.407	35.494
2.398	35.6403
2.389	35.5421
2.38	35.6322
2.372	36.3078
2.363	36.6173
2.354	36.6581
2.346	36.9801
2.337	37.5241
2.329	37.8288
2.321	38.287
2.312	38.6532
2.304	39.2438
2.296	39.6762
2.288	40.2602
2.28	40.6967
2.272	40.8988
2.264	41.3043
2.256	41.5553
2.248	41.5087
2.24	41.4254
2.233	41.6112
2.225	41.381
2.217	39.6857
2.21	35.6413
2.202	37.0329
2.195	37.9494
2.187	39.3686
2.18	40.4704
2.173	41.046
2.166	41.2533
2.158	41.9569
2.151	43.1178
2.144	44.298
2.137	45.0375
2.13	45.2216
2.123	45.2699
2.116	45.4471
2.109	45.5221
2.102	45.8951
2.095	45.8651
2.089	46.276
2.082	46.0062
2.06	46.9939
2.028	46.7282
1.996	46.0734
1.964	43.8001
1.932	41.111
1.9	41.0881
1.868	48.7385
1.836	50.9546
1.804	50.669
1.772	50.7065
1.74	51.1771
1.708	51.1095
1.676	50.5789
1.644	50.4272
1.612	50.7518
1.58	50.0426
1.548	49.6429
1.516	49.4332
1.484	47.8675
1.452	46.6163
1.42	46.0347
1.388	44.2505
1.356	47.7094
1.324	47.595
1.292	47.88
1.26	46.5605
1.228	45.9913
1.196	45.7007
1.164	44.4656
1.132	42.9472
1.1	41.5088
1.068	40.0774
1.036	39.9155
1.004	38.8043
0.972	38.1891
0.94	36.9586
0.908	36.4925
0.876	36.8622
0.844	37.3449
0.812	37.7259
0.795	37.7415
0.787	37.8385
0.779	37.5229
0.771	37.2385
0.763	37.0242
0.755	36.3787
0.747	35.8274
0.739	35.5354
0.731	34.7166
0.723	34.1597
0.715	33.9342
0.707	33.1348
0.699	32.5355
0.691	31.3236
0.683	30.643
0.675	30.2788
0.667	29.8243
0.659	28.9137
0.651	28.4805
0.643	27.8822
0.635	27.055
0.627	26.8265
0.619	25.8145
0.611	25.417
0.603	24.6523
0.595	24.05
0.587	23.2248
0.579	21.987
0.571	20.459
0.563	18.5544
0.555	16.8501
0.547	14.9352
0.539	13.7692
0.531	12.1426
0.523	11.032
0.515	9.9386
0.507	8.3338
0.499	7.4376
0.491	6.3139
0.483	5.3271
0.475	4.8676
0.467	4.2821
0.459	3.9768
0.451	3.4523
0.443	3.0361
0.435	2.2066
0.427	1.055
0.419	0.3339
0.411	0
0.403	0
