Name: Isna
Type: Stony Meteorites
Class: Carbonaceous Chondrite
Subclass: CO3
Particle Size: 0-75 micrometers
Sample No.: Isna
Owner: JHU
Origin: Meteorite found in Egypt on unknown date.  Arizona State University
Description: None.
Measurement: Bidirectional reflectance
X Units: Wavelength (micrometers)
Y Units: Reflectance (percent)
wavelength	value
25.044	0.7778
24.339	0.5356
23.672	0.5261
23.041	0.3906
22.442	0.4612
21.874	0.5286
21.334	0.5322
20.82	0.5955
20.33	0.6072
19.863	0.574
19.416	0.6135
18.99	0.6094
18.581	0.5862
18.19	0.521
17.815	0.4421
17.455	0.4631
17.109	0.4534
16.777	0.418
16.458	0.3975
16.15	0.3962
15.854	0.3962
15.568	0.4038
15.292	0.4441
15.027	0.4937
14.77	0.5515
14.521	0.6401
14.281	0.7207
14.049	0.7915
13.824	0.853
13.607	0.9331
13.396	1.0818
13.191	1.2165
12.993	1.3049
12.8	1.3577
12.614	1.3401
12.432	1.2573
12.256	1.095
12.084	0.8271
11.918	0.6438
11.755	0.6953
11.598	0.7473
11.444	0.7661
11.294	0.772
11.149	0.7493
11.007	0.7307
10.868	0.7402
10.733	0.761
10.602	0.6897
10.473	0.6152
10.348	0.616
10.225	0.5828
10.106	0.5261
9.9887	0.5186
9.8746	0.5266
9.763	0.5264
9.6539	0.5715
9.5472	0.6414
9.4429	0.688
9.3408	0.6636
9.2409	0.6289
9.1431	0.6465
9.0474	0.697
8.9536	0.7563
8.8618	0.8323
8.7718	0.8997
8.6837	0.9883
8.5973	1.0876
8.5126	1.1799
8.4295	1.2993
8.3481	1.4214
8.2682	1.5405
8.1898	1.647
8.1129	1.7449
8.0374	1.8286
7.9634	1.8921
7.8906	1.9351
7.8192	1.9707
7.7491	1.9988
7.6802	2.0012
7.6126	1.9958
7.5461	1.9995
7.4807	1.9988
7.4165	2.0046
7.3534	2.0312
7.2914	2.073
7.2303	2.1167
7.1703	2.1528
7.1113	2.1953
7.0533	2.241
6.9962	2.2913
6.94	2.3386
6.8847	2.3684
6.8302	2.3943
6.7767	2.415
6.7239	2.4192
6.672	2.4111
6.6209	2.4138
6.5705	2.4177
6.5209	2.4202
6.4721	2.4133
6.424	2.3975
6.3766	2.3843
6.3299	2.3711
6.2838	2.3816
6.2385	2.4109
6.1937	2.4409
6.1496	2.4678
6.1062	2.4553
6.0633	2.4006
6.0211	2.4036
5.9794	2.4612
5.9383	2.5168
5.8978	2.5615
5.8578	2.5986
5.8184	2.6296
5.7794	2.6311
5.741	2.5872
5.7031	2.5261
5.6657	2.4936
5.6288	2.5315
5.5924	2.5884
5.5564	2.6257
5.5209	2.645
5.4859	2.657
5.4513	2.6819
5.4171	2.7122
5.3833	2.7383
5.35	2.7578
5.3171	2.7654
5.2846	2.7742
5.2524	2.7937
5.2207	2.8122
5.1893	2.8291
5.1584	2.8406
5.1277	2.8442
5.0975	2.855
5.0676	2.8689
5.038	2.8816
5.0088	2.9016
4.98	2.926
4.9514	2.9529
4.9232	2.9853
4.8953	3.01
4.8678	3.0237
4.8405	3.0371
4.8135	3.0535
4.7868	3.0657
4.7605	3.0796
4.7344	3.0886
4.7086	3.1003
4.6831	3.1079
4.6578	3.1194
4.6328	3.1282
4.6081	3.1401
4.5837	3.1492
4.5595	3.156
4.5356	3.165
4.5119	3.1714
4.4884	3.1797
4.4652	3.1872
4.4423	3.1936
4.4196	3.2002
4.3971	3.2063
4.3748	3.2139
4.3528	3.217
4.331	3.2234
4.3094	3.2244
4.288	3.228
4.2668	3.2307
4.2458	3.2371
4.2251	3.2422
4.2045	3.2449
4.1841	3.2456
4.164	3.2461
4.144	3.2449
4.1242	3.241
4.1046	3.2417
4.0852	3.2405
4.066	3.2346
4.047	3.2341
4.0281	3.2297
4.0094	3.2248
3.9909	3.2231
3.9725	3.2148
3.9544	3.2121
3.9363	3.2124
3.9185	3.209
3.9008	3.2046
3.8833	3.2019
3.8659	3.1985
3.8487	3.1902
3.8316	3.1838
3.8147	3.1846
3.7979	3.1787
3.7813	3.1704
3.7648	3.1633
3.7485	3.1538
3.7323	3.1433
3.7162	3.1345
3.7003	3.124
3.6845	3.113
3.6689	3.1006
3.6534	3.0898
3.638	3.0774
3.6227	3.0676
3.6076	3.0596
3.5926	3.0464
3.5777	3.0276
3.563	3.0195
3.5484	2.9988
3.5338	2.9841
3.5195	2.968
3.5052	2.9517
3.491	2.9365
3.477	2.9265
3.463	2.918
3.4492	2.9065
3.4355	2.886
3.4219	2.8603
3.4084	2.8508
3.395	2.8459
3.3817	2.8313
3.3685	2.8147
3.3554	2.8101
3.3425	2.802
3.3296	2.783
3.3168	2.7664
3.3041	2.7537
3.2915	2.7336
3.279	2.7146
3.2666	2.697
3.2543	2.6777
3.2421	2.6548
3.23	2.6357
3.218	2.6172
3.206	2.5962
3.1942	2.5754
3.1824	2.5552
3.1707	2.5349
3.1591	2.5217
3.1476	2.5027
3.1362	2.4917
3.1249	2.4817
3.1136	2.4702
3.1024	2.4678
3.0913	2.4626
3.0803	2.448
3.0694	2.439
3.0585	2.4446
3.0477	2.4297
3.037	2.4263
3.0264	2.4204
3.0158	2.4092
3.0053	2.4055
2.9949	2.3989
2.9845	2.3918
2.9743	2.3943
2.9641	2.3855
2.9539	2.384
2.9439	2.3791
2.9339	2.3801
2.9239	2.3806
2.9141	2.3757
2.9043	2.3782
2.8946	2.3831
2.8849	2.3865
2.8753	2.3957
2.8658	2.4062
2.8563	2.4209
2.8469	2.437
2.8375	2.4578
2.8282	2.4785
2.819	2.5032
2.8098	2.5347
2.8007	2.5576
2.7917	2.5879
2.7827	2.6291
2.7738	2.6677
2.7649	2.7051
2.7561	2.7463
2.7473	2.7849
2.7386	2.8159
2.7299	2.8476
2.7213	2.864
2.7128	2.8935
2.7043	2.9126
2.6959	2.9216
2.6875	2.9392
2.6791	2.9353
2.6709	2.9316
2.6626	2.9429
2.6545	2.9387
2.6463	2.9451
2.6382	2.9421
2.6302	2.9397
2.6222	2.9394
2.6143	2.9289
2.6064	2.9299
2.5986	2.9219
2.5908	2.917
2.583	2.9228
2.5753	2.9141
2.5677	2.9158
2.5601	2.9072
2.5525	2.9021
2.545	2.8967
2.5375	2.8979
2.5301	2.8921
2.5227	2.8879
2.5154	2.8916
2.5081	2.874
2.5008	2.8791
2.4936	2.8757
2.4864	2.8599
2.4793	2.8606
2.4722	2.864
2.4651	2.8489
2.4581	2.8469
2.4511	2.8535
2.4442	2.8428
2.4373	2.8328
2.4305	2.8396
2.4236	2.8359
2.4169	2.8323
2.4101	2.8274
2.4034	2.8164
2.3967	2.8096
2.3901	2.8101
2.3835	2.8125
2.377	2.802
2.3704	2.7883
2.364	2.7817
2.3575	2.7864
2.3511	2.7783
2.3447	2.7707
2.3384	2.7688
2.3321	2.7605
2.3258	2.761
2.3195	2.7566
2.3133	2.7497
2.3071	2.7512
2.301	2.7605
2.2949	2.7493
2.2888	2.7388
2.2828	2.7385
2.2767	2.7451
2.2708	2.7317
2.2648	2.7246
2.2589	2.7329
2.253	2.7214
2.2471	2.7226
2.2413	2.7278
2.2355	2.7156
2.2297	2.7195
2.224	2.6975
2.2183	2.7031
2.2126	2.7285
2.207	2.7024
2.2013	2.7104
2.1957	2.7339
2.1902	2.7251
2.1846	2.7129
2.1791	2.7021
2.1736	2.7031
2.1682	2.7056
2.1628	2.7102
2.1574	2.7031
2.152	2.7063
2.1466	2.709
2.1413	2.7131
2.136	2.7004
2.1308	2.7053
2.1255	2.6916
2.1203	2.688
2.1151	2.6955
2.11	2.6934
2.1048	2.6909
2.0997	2.6938
2.0946	2.6921
2.0895	2.7056
2.0845	2.7124
2.0795	2.6999
