Name: PCA 82506
Type: Stony Meteorites
Class: Achondrite
Subclass: Urelite
Particle Size: 0-75 micrometers
Sample No.: PCA 82506
Owner: JHU
Origin: Found in Antarctic in 1982.  Smithsonian sample No. PCA 82506.07.
Description: None.
Measurement: Bidirectional reflectance
X Units: Wavelength (micrometers)
Y Units: Reflectance (percent)
wavelength	value
25.044	0.7854
24.339	0.8022
23.672	0.876
23.041	0.6802
22.442	0.5601
21.874	0.5312
21.334	0.5669
20.82	0.5405
20.33	0.6345
19.863	0.7212
19.416	0.7795
18.99	0.7737
18.581	0.6392
18.19	0.6365
17.815	0.6711
17.455	0.594
17.109	0.5903
16.777	0.6057
16.458	0.5503
16.15	0.5679
15.854	0.5366
15.568	0.5027
15.292	0.4626
15.027	0.5742
14.77	0.623
14.521	0.7319
14.281	0.8728
14.049	0.9324
13.824	0.877
13.607	0.8984
13.396	1.0923
13.191	1.2288
12.993	1.2747
12.8	1.2324
12.614	1.1602
12.432	1.0745
12.256	0.9326
12.084	0.7854
11.918	0.6433
11.755	0.6431
11.598	0.6621
11.444	0.792
11.294	0.8237
11.149	0.7959
11.007	0.7881
10.868	0.8135
10.733	0.8503
10.602	0.8755
10.473	0.8127
10.348	0.7378
10.225	0.7129
10.106	0.7407
9.9887	0.7266
9.8746	0.7166
9.763	0.7439
9.6539	0.7834
9.5472	0.8491
9.4429	0.8462
9.3408	0.8269
9.2409	0.7568
9.1431	0.7507
9.0474	0.7747
8.9536	0.8176
8.8618	0.8552
8.7718	0.834
8.6837	0.8638
8.5973	0.9407
8.5126	0.989
8.4295	1.0317
8.3481	1.0957
8.2682	1.1663
8.1898	1.2412
8.1129	1.335
8.0374	1.4241
7.9634	1.4885
7.8906	1.5525
7.8192	1.602
7.7491	1.637
7.6802	1.665
7.6126	1.6868
7.5461	1.6973
7.4807	1.7361
7.4165	1.7695
7.3534	1.8181
7.2914	1.8384
7.2303	1.8701
7.1703	1.8889
7.1113	1.916
7.0533	1.9465
6.9962	1.9714
6.94	2.0044
6.8847	2.0134
6.8302	2.0161
6.7767	2.022
6.7239	2.0327
6.672	2.0227
6.6209	2.0305
6.5705	2.0356
6.5209	2.0461
6.4721	2.0415
6.424	2.0447
6.3766	2.029
6.3299	2.0105
6.2838	1.9963
6.2385	2.0027
6.1937	2.0098
6.1496	2.011
6.1062	2.0071
6.0633	1.9697
6.0211	1.9141
5.9794	1.9304
5.9383	1.9668
5.8978	2.0054
5.8578	2.0281
5.8184	2.0466
5.7794	2.0539
5.741	2.0586
5.7031	2.0264
5.6657	1.9883
5.6288	1.9683
5.5924	2.0019
5.5564	2.0652
5.5209	2.0815
5.4859	2.0881
5.4513	2.0784
5.4171	2.0925
5.3833	2.1125
5.35	2.1211
5.3171	2.1267
5.2846	2.1125
5.2524	2.103
5.2207	2.0986
5.1893	2.0908
5.1584	2.0989
5.1277	2.1055
5.0975	2.1321
5.0676	2.1389
5.038	2.1636
5.0088	2.1636
4.98	2.1609
4.9514	2.1619
4.9232	2.1777
4.8953	2.2046
4.8678	2.2202
4.8405	2.2314
4.8135	2.2502
4.7868	2.2578
4.7605	2.2703
4.7344	2.2727
4.7086	2.2776
4.6831	2.2768
4.6578	2.291
4.6328	2.2978
4.6081	2.3091
4.5837	2.3166
4.5595	2.3113
4.5356	2.3093
4.5119	2.3193
4.4884	2.324
4.4652	2.3152
4.4423	2.3223
4.4196	2.3242
4.3971	2.3249
4.3748	2.3186
4.3528	2.3225
4.331	2.3237
4.3094	2.3142
4.288	2.3081
4.2668	2.311
4.2458	2.3127
4.2251	2.3061
4.2045	2.3088
4.1841	2.303
4.164	2.2961
4.144	2.3
4.1242	2.2913
4.1046	2.2873
4.0852	2.2878
4.066	2.2883
4.047	2.2878
4.0281	2.2883
4.0094	2.2849
3.9909	2.2764
3.9725	2.2688
3.9544	2.2693
3.9363	2.2732
3.9185	2.2624
3.9008	2.2593
3.8833	2.2561
3.8659	2.2568
3.8487	2.2519
3.8316	2.2407
3.8147	2.2368
3.7979	2.2349
3.7813	2.2346
3.7648	2.2236
3.7485	2.2307
3.7323	2.2224
3.7162	2.2187
3.7003	2.2017
3.6845	2.2065
3.6689	2.2012
3.6534	2.1882
3.638	2.1841
3.6227	2.1819
3.6076	2.1653
3.5926	2.1582
3.5777	2.155
3.563	2.1487
3.5484	2.1467
3.5338	2.1343
3.5195	2.1191
3.5052	2.1018
3.491	2.1062
3.477	2.1008
3.463	2.0898
3.4492	2.0806
3.4355	2.0727
3.4219	2.052
3.4084	2.052
3.395	2.0474
3.3817	2.0452
3.3685	2.0373
3.3554	2.0371
3.3425	2.0256
3.3296	2.02
3.3168	2.0037
3.3041	2
3.2915	1.979
3.279	1.9683
3.2666	1.9658
3.2543	1.9524
3.2421	1.939
3.23	1.9238
3.218	1.9141
3.206	1.9021
3.1942	1.8848
3.1824	1.8843
3.1707	1.8665
3.1591	1.8667
3.1476	1.856
3.1362	1.8489
3.1249	1.8442
3.1136	1.8479
3.1024	1.8525
3.0913	1.8486
3.0803	1.8501
3.0694	1.8528
3.0585	1.8599
3.0477	1.8496
3.037	1.8628
3.0264	1.8584
3.0158	1.864
3.0053	1.8728
2.9949	1.8782
2.9845	1.8757
2.9743	1.8957
2.9641	1.8748
2.9539	1.885
2.9439	1.8791
2.9339	1.8806
2.9239	1.8962
2.9141	1.8926
2.9043	1.8992
2.8946	1.9082
2.8849	1.9045
2.8753	1.9136
2.8658	1.9126
2.8563	1.9233
2.8469	1.9321
2.8375	1.9243
2.8282	1.9475
2.819	1.9668
2.8098	1.9644
2.8007	1.9834
2.7917	1.991
2.7827	2.0134
2.7738	2.0283
2.7649	2.0327
2.7561	2.0539
2.7473	2.0625
2.7386	2.0808
2.7299	2.0928
2.7213	2.0913
2.7128	2.1096
2.7043	2.1174
2.6959	2.1186
2.6875	2.1108
2.6791	2.1272
2.6709	2.135
2.6626	2.1309
2.6545	2.1318
2.6463	2.1321
2.6382	2.1377
2.6302	2.1287
2.6222	2.1301
2.6143	2.1265
2.6064	2.1216
2.5986	2.1355
2.5908	2.1343
2.583	2.1287
2.5753	2.1064
2.5677	2.1287
2.5601	2.1274
2.5525	2.1152
2.545	2.1309
2.5375	2.1199
2.5301	2.1365
2.5227	2.1204
2.5154	2.1121
2.5081	2.1045
2.5008	2.1143
2.4936	2.1118
2.4864	2.0845
2.4793	2.1106
2.4722	2.0906
2.4651	2.1025
2.4581	2.0876
2.4511	2.0901
2.4442	2.104
2.4373	2.0891
2.4305	2.1033
2.4236	2.1016
2.4169	2.1023
2.4101	2.1023
2.4034	2.0896
2.3967	2.1147
2.3901	2.0952
2.3835	2.0857
2.377	2.1081
2.3704	2.071
2.364	2.0874
2.3575	2.0767
2.3511	2.0767
2.3447	2.0735
2.3384	2.0911
2.3321	2.0857
2.3258	2.082
2.3195	2.0879
2.3133	2.0793
2.3071	2.0561
2.301	2.0791
2.2949	2.0818
2.2888	2.0776
2.2828	2.1101
2.2767	2.0706
2.2708	2.0857
2.2648	2.0942
2.2589	2.0759
2.253	2.0671
2.2471	2.0913
2.2413	2.084
2.2355	2.0769
2.2297	2.0876
2.224	2.095
2.2183	2.0735
2.2126	2.0972
2.207	2.0749
2.2013	2.0889
2.1957	2.1003
2.1902	2.0901
2.1846	2.0793
2.1791	2.082
2.1736	2.0952
2.1682	2.0544
2.1628	2.0691
2.1574	2.082
2.152	2.0664
2.1466	2.0813
2.1413	2.0559
2.136	2.0759
2.1308	2.0493
2.1255	2.0537
2.1203	2.095
2.1151	2.0659
2.11	2.0525
2.1048	2.0747
2.0997	2.0681
2.0946	2.0483
2.0895	2.0539
2.0845	2.0469
2.0795	2.1423
