Name: Augite (Ca,Na)(Mg,Fe,Al,Ti)(Si,Al)2O6
Type: Mineral
Class: Silicates
Subclass: Inosilicates (Pyroxene Group - single chain)
Particle Size: Solid
Sample No.: augite.1
Owner: JHU
Wavelength Range: IR
Origin: Sample from Monteagle Township, Hostings Co., Ontario,
Description: Sample consisted of  fragments of well-formed crystal(s),
Measurement: Bidirectional reflectance
X Units: Wavelength (micrometers)
Y Units: Reflectance (percent)
wavelength	value
25.0442	17.6845
24.3388	14.3183
23.6719	13.4404
23.0407	15.5068
22.4422	20.9143
21.8741	24.0078
21.334	25.623
20.8199	25.5121
20.33	24.2961
19.8627	25.3285
19.4163	27.1279
18.9896	28.9076
18.5812	30.9013
18.19	31.1933
17.815	27.853
17.4551	19.6689
17.1094	10.1201
16.7772	6.7246
16.4576	7.0124
16.15	7.9763
15.8537	9.3637
15.568	7.4841
15.2925	6.6379
15.0265	7.8052
14.7697	7.1352
14.5214	6.6494
14.2814	6.9614
14.0492	7.3252
13.8244	7.6687
13.6067	8.008
13.3957	8.3511
13.1912	8.6765
12.9929	8.9817
12.8004	9.2627
12.6135	9.6501
12.432	10.1394
12.2557	10.6811
12.0843	11.49
11.9176	13.0144
11.7555	16.7873
11.5977	21.1486
11.444	23.331
11.2944	24.1406
11.1487	24.6276
11.0067	25.777
10.8682	26.5822
10.7332	23.8239
10.6015	25.7558
10.473	26.4199
10.3476	25.2097
10.2251	18.4958
10.1056	13.1782
9.98873	13.6284
9.87458	14.5881
9.763	15.049
9.65392	15.8454
9.54724	18.2033
9.44291	21.8928
9.34082	23.6149
9.24091	24.2248
9.14312	24.6122
9.04739	25.3559
8.95363	27.0097
8.8618	29.8896
8.77183	28.1386
8.68368	22.4623
8.59727	13.8645
8.51257	5.5918
8.42951	1.6958
8.34807	1.8201
8.26819	2.3501
8.18981	2.7705
8.11292	3.1003
8.03745	3.3613
7.96337	3.5852
7.89064	3.7908
7.81924	4.0039
7.74911	4.1872
7.68023	4.3594
7.61256	4.5083
7.54608	4.6243
7.48074	4.7351
7.41653	4.8564
7.35341	4.9502
7.29136	5.0329
7.23034	5.1006
7.17033	5.1904
7.11132	5.2695
7.05327	5.3506
6.99616	5.4177
6.93996	5.4538
6.88467	5.4983
6.83024	5.5427
6.77667	5.5896
6.72393	5.6184
6.67201	5.6377
6.62089	5.6806
6.57054	5.6911
6.52095	5.7114
6.4721	5.7283
6.42398	5.7502
6.37657	5.782
6.32986	5.8069
6.28382	5.8254
6.23845	5.8598
6.19373	5.8845
6.14965	5.883
6.10619	5.8918
6.06334	5.9094
6.02109	5.9448
5.97942	5.98
5.93832	6.0207
5.89778	6.0625
5.8578	6.0808
5.81835	6.095
5.77943	6.1577
5.74103	6.2119
5.70314	6.2483
5.66574	6.271
5.62883	6.2778
5.5924	6.2551
5.55644	6.2659
5.52093	6.2673
5.48588	6.2556
5.45127	6.2576
5.41709	6.2427
5.38334	6.2312
5.35	6.2214
5.31708	6.2197
5.28456	6.2146
5.25243	6.2178
5.2207	6.2134
5.18934	6.2014
5.15836	6.1833
5.12775	6.1699
5.09749	6.1543
5.0676	6.1597
5.03805	6.165
5.00884	6.1699
4.97998	6.185
4.95144	6.1836
4.92322	6.1997
4.89533	6.1985
4.86775	6.2175
4.84048	6.2363
4.81351	6.2632
4.78684	6.2822
4.76047	6.312
4.73439	6.3303
4.70859	6.3567
4.68306	6.3667
4.65782	6.3904
4.63284	6.4338
4.60814	6.4773
4.58369	6.501
4.5595	6.5295
4.53557	6.5627
4.51188	6.591
4.48845	6.5984
4.46525	6.5954
4.44229	6.6028
4.41957	6.6033
4.39708	6.6191
4.37481	6.6318
4.35277	6.6291
4.33096	6.6357
4.30935	6.643
4.28797	6.655
4.26679	6.6531
4.24583	6.6553
4.22506	6.6592
4.2045	6.6575
4.18414	6.6697
4.16398	6.6775
4.14401	6.6662
4.12423	6.6704
4.10464	6.6755
4.08523	6.6572
4.066	6.6611
4.04696	6.647
4.02809	6.635
4.0094	6.6159
3.99088	6.5881
3.97253	6.5859
3.95435	6.5849
3.93634	6.5859
3.91848	6.5884
3.90079	6.5823
3.88326	6.5759
3.86589	6.5627
3.84867	6.5505
3.8316	6.5527
3.81468	6.5403
3.79791	6.5412
3.78129	6.5295
3.76482	6.5205
3.74848	6.4993
3.73229	6.4905
3.71624	6.4748
3.70032	6.4514
3.68454	6.4363
3.6689	6.4143
3.65338	6.4038
3.638	6.3696
3.62275	6.3523
3.60762	6.3274
3.59262	6.3066
3.57775	6.2905
3.56299	6.2424
3.54836	6.1955
3.53385	6.1572
3.51945	6.053
3.50517	5.9121
3.49101	5.9516
3.47696	5.9653
3.46303	5.9507
3.4492	5.8867
3.43549	5.8066
3.42188	5.7336
3.40838	5.7734
3.39499	5.824
3.38171	5.8139
3.36852	5.8694
3.35544	5.8755
3.34246	5.8694
3.32958	5.8364
3.3168	5.8037
3.30411	5.7839
3.29153	5.7419
3.27903	5.7087
3.26664	5.6777
3.25433	5.646
3.24212	5.605
3.23	5.5686
3.21797	5.532
3.20603	5.4885
3.19418	5.4485
3.18241	5.4079
3.17074	5.3613
3.15914	5.3447
3.14763	5.3022
3.13621	5.2453
3.12487	5.2085
3.11361	5.1826
3.10243	5.1377
3.09133	5.0923
3.0803	5.0769
3.06936	5.0444
3.0585	4.9946
3.04771	4.998
3.037	4.959
3.02636	4.9194
3.0158	4.8706
3.00531	4.8452
2.99489	4.8142
2.98454	4.792
2.97427	4.7617
2.96407	4.728
2.95393	4.7058
2.94387	4.6899
2.93387	4.6509
2.92394	4.6191
2.91408	4.582
2.90429	4.5452
2.89456	4.5303
2.88489	4.5171
2.87529	4.4809
2.86576	4.4541
2.85628	4.4272
2.84687	4.4016
2.83752	4.3894
2.82823	4.3721
2.81901	4.3491
2.80984	4.3425
2.80073	4.3003
2.79168	4.2969
2.78269	4.2842
2.77376	4.292
2.76488	4.2788
2.75606	4.2632
2.7473	4.2358
2.73859	4.269
2.72994	4.1235
2.72134	4.1299
2.7128	4.4646
2.70431	4.4924
2.69587	4.479
2.68748	4.4695
2.67915	4.4292
2.67087	4.3935
2.66264	4.3845
2.65446	4.3489
2.64633	4.2974
2.63825	4.2507
2.63021	4.1826
2.62223	4.1665
2.6143	4.1411
2.60641	4.0974
2.59857	4.041
2.59078	4.0127
2.58304	3.9809
2.57534	3.9414
2.56768	3.9221
2.56008	3.8833
2.55251	3.8516
2.54499	3.8115
2.53752	3.7659
2.53009	3.7358
2.5227	3.7158
2.51536	3.6699
2.50806	3.6428
2.5008	3.6223
2.49358	3.5898
2.4864	3.552
2.47927	3.5537
2.47218	3.5276
2.46512	3.4849
2.45811	3.4497
2.45114	3.428
2.4442	3.395
2.43731	3.3486
2.43045	3.3518
2.42363	3.2971
2.41685	3.2695
2.41011	3.2705
2.40341	3.2746
2.39674	3.2395
2.39011	3.1767
2.38352	3.1623
2.37696	3.1777
2.37044	3.1523
2.36395	3.1487
2.35751	3.1367
2.35109	3.0771
2.34471	3.1164
2.33836	3.084
2.33205	3.0674
2.32578	3.0735
2.31953	3.0215
2.31332	3.0386
2.30714	3.0474
2.301	3.0234
2.29489	3.0176
2.28881	3.0063
2.28276	2.999
2.27675	3.0142
2.27076	2.9775
2.26481	2.977
2.25889	3.0244
2.253	2.9761
2.24714	2.9551
2.24131	2.9458
2.23551	2.9541
2.22974	2.9868
2.224	2.9419
2.21829	2.9629
2.21261	2.9668
2.20696	2.9971
2.20134	2.9951
2.19574	2.9985
2.19018	2.9575
2.18464	2.9692
2.17913	2.9809
2.17365	2.96
2.16819	2.9883
2.16277	3.0117
2.15737	2.9453
2.15199	3.0142
2.14665	2.9751
2.14133	3.0176
2.13603	2.9614
2.13077	2.9717
2.12552	3.0063
2.12031	3.0088
2.11512	2.998
2.10995	2.9912
2.10481	3.0273
2.0997	3.0278
2.09461	3.0337
2.08954	3.0571
2.0845	3.0337
2.07948	3.0395
