Name: Biotite K(Mg,Fe+2)3(Al,Fe+3)Si3O10(OH,F)2
Type: Mineral
Class: Silicates
Subclass: Phyllosilicates (Mica Group)
Particle Size: Fine  (Less than 2 Micrometers)
Sample No.: biotite.1
Owner: JHU
Wavelength Range: IR
Origin: Source Smithsonian NMNH 78303 Sample from Wakefield,
Description: Sample consisted of four large (5 cm x 5 cm x 3 cm)
Measurement: Transmission
X Units: Wavelength (micrometers)
Y Units: Transmittance (percent)
wavelength	value
25.0442	53.6717
24.3388	47.9374
23.6719	40.8632
23.0407	32.871
22.4422	26.6659
21.8741	23.5253
21.334	25.6503
20.8199	34.8085
20.33	41.8143
19.8627	47.828
19.4163	53.6034
18.9896	61.2352
18.5812	69.0047
18.19	75.3318
17.815	79.743
17.4551	81.5633
17.1094	80.6297
16.7772	79.2312
16.4576	78.451
16.15	78.4158
15.8537	79.3728
15.568	79.4891
15.2925	79.032
15.0265	79.0857
14.7697	77.8709
14.5214	75.8367
14.2814	76.8699
14.0492	77.1004
13.8244	77.4197
13.6067	78.8592
13.3957	80.2967
13.1912	80.5701
12.9929	81.4104
12.8004	82.5584
12.6135	83.3675
12.432	82.8826
12.2557	84.3806
12.0843	88.3845
11.9176	87.7107
11.7555	84.2405
11.5977	81.3416
11.444	78.4085
11.2944	75.1819
11.1487	69.3123
11.0067	63.6541
10.8682	58.9007
10.7332	52.7289
10.6015	43.432
10.473	31.2861
10.3476	23.2831
10.2251	21.0244
10.1056	17.726
9.98873	15.3208
9.87458	20.0849
9.763	28.6708
9.65392	36.6855
9.54724	43.6957
9.44291	48.7987
9.34082	52.7313
9.24091	57.3182
9.14312	63.1219
9.04739	69.6678
8.95363	74.848
8.8618	78.2913
8.77183	80.4266
8.68368	82.2537
8.59727	84.0081
8.51257	85.3904
8.42951	86.5803
8.34807	87.7952
8.26819	88.8474
8.18981	89.6445
8.11292	90.3357
8.03745	90.7783
7.96337	91.1846
7.89064	91.6658
7.81924	92.0711
7.74911	92.2608
7.68023	92.5173
7.61256	92.9844
7.54608	93.1836
7.48074	93.3604
7.41653	93.4746
7.35341	93.6912
7.29136	93.8633
7.23034	94.054
7.17033	93.7478
7.11132	93.6794
7.05327	93.5361
6.99616	93.2253
6.93996	92.3269
6.88467	92.5684
6.83024	93.3572
6.77667	93.5603
6.72393	93.7695
6.67201	94.2664
6.62089	94.7078
6.57054	94.8398
6.52095	94.7
6.4721	94.7253
6.42398	94.5857
6.37657	94.2556
6.32986	93.8438
6.28382	93.0332
6.23845	91.6775
6.19373	89.9385
6.14965	89.1502
6.10619	90.155
6.06334	90.9522
6.02109	90.0857
5.97942	90.2158
5.93832	92.7647
5.89778	94.5342
5.8578	95.4775
5.81835	95.8533
5.77943	96.0193
5.74103	96.1492
5.70314	96.1794
5.66574	96.2168
5.62883	96.293
5.5924	96.3718
5.55644	96.4402
5.52093	96.5049
5.48588	96.5703
5.45127	96.7031
5.41709	96.832
5.38334	96.8816
5.35	97.0134
5.31708	97.1121
5.28456	97.1719
5.25243	97.2478
5.2207	97.28
5.18934	97.3164
5.15836	97.3701
5.12775	97.3926
5.09749	97.3975
5.0676	97.3962
5.03805	97.4094
5.00884	97.4866
4.97998	97.5422
4.95144	97.5862
4.92322	97.6096
4.89533	97.5906
4.86775	97.6731
4.84048	97.717
4.81351	97.7385
4.78684	97.7873
4.76047	97.8401
4.73439	97.8918
4.70859	97.9324
4.68306	97.9397
4.65782	97.9719
4.63284	98.0789
4.60814	98.1316
4.58369	98.1584
4.5595	98.1169
4.53557	98.1399
4.51188	98.1599
4.48845	98.1877
4.46525	98.2073
4.44229	98.2375
4.41957	98.2522
4.39708	98.3288
4.37481	98.3552
4.35277	98.3655
4.33096	98.3874
4.30935	98.387
4.28797	98.3913
4.26679	98.4055
4.24583	98.4626
4.22506	98.5056
4.2045	98.4534
4.18414	98.5281
4.16398	98.5544
4.14401	98.5505
4.12423	98.6487
4.10464	98.696
4.08523	98.6482
4.066	98.6506
4.04696	98.6736
4.02809	98.7366
4.0094	98.782
3.99088	98.7537
3.97253	98.7541
3.95435	98.7834
3.93634	98.8127
3.91848	98.9158
3.90079	98.9026
3.88326	98.8181
3.86589	98.8108
3.84867	98.8328
3.8316	98.8845
3.81468	98.9104
3.79791	98.8557
3.78129	98.8787
3.76482	98.8791
3.74848	98.8435
3.73229	98.8913
3.71624	98.8894
3.70032	98.8689
3.68454	98.885
3.6689	98.8205
3.65338	98.8386
3.638	98.9246
3.62275	98.8357
3.60762	98.8279
3.59262	98.7732
3.57775	98.8811
3.56299	98.7952
3.54836	98.7873
3.53385	98.9392
3.51945	99.01
3.50517	99.1521
3.49101	99.2053
3.47696	99.1311
3.46303	99.1975
3.4492	99.303
3.43549	99.2537
3.42188	99.2541
3.40838	98.9729
3.39499	98.8611
3.38171	98.7092
3.36852	98.5388
3.35544	98.3381
3.34246	98.2092
3.32958	98.2615
3.3168	98.1565
3.30411	98.1394
3.29153	97.9983
3.27903	97.9358
3.26664	97.9646
3.25433	97.8557
3.24212	97.7522
3.23	97.6013
3.21797	97.4958
3.20603	97.4548
3.19418	97.3718
3.18241	97.2683
3.17074	97.0886
3.15914	96.865
3.14763	96.49
3.13621	96.0984
3.12487	95.6873
3.11361	95.5007
3.10243	95.6453
3.09133	95.5144
3.0803	95.2087
3.06936	94.9802
3.0585	94.9783
3.04771	95.1062
3.037	94.74
3.02636	94.2908
3.0158	93.7058
3.00531	93.0388
2.99489	92.5271
2.98454	91.9695
2.97427	91.1716
2.96407	90.0427
2.95393	89.0056
2.94387	88.3982
2.93387	87.7556
2.92394	87.2107
2.91408	87.0047
2.90429	87.1736
2.89456	87.5369
2.88489	88.0486
2.87529	88.5828
2.86576	89.1326
2.85628	90.0593
2.84687	90.7029
2.83752	91.1921
2.82823	91.5437
2.81901	91.9412
2.80984	92.199
2.80073	92.6101
2.79168	93.1023
2.78269	93.6404
2.77376	94.3064
2.76488	94.8259
2.75606	95.1843
2.7473	95.4968
2.73859	95.4226
2.72994	95.1443
2.72134	95.4226
2.7128	95.2419
2.70431	94.6687
2.69587	94.4802
2.68748	96.3835
2.67915	98.0203
2.67087	98.2156
2.66264	98.0906
2.65446	98.0906
2.64633	98.0203
2.63825	98.1062
2.63021	98.1912
2.62223	98.1414
2.6143	97.9187
2.60641	97.9343
2.59857	97.8669
2.59078	98.2185
2.58304	98.1853
2.57534	98.115
2.56768	97.8787
2.56008	97.9236
2.55251	97.908
2.54499	97.9021
2.53752	97.9099
2.53009	97.781
2.5227	97.6208
2.51536	97.8747
2.50806	97.9333
2.5008	97.7966
2.49358	97.7224
2.4864	97.7947
2.47927	97.7244
2.47218	97.4822
2.46512	97.7302
2.45811	97.6794
2.45114	97.5798
2.4442	97.4001
2.43731	97.4724
2.43045	97.488
2.42363	97.6872
2.41685	97.6013
2.41011	97.5896
2.40341	97.5642
2.39674	97.5896
2.39011	97.408
2.38352	97.2361
2.37696	97.4373
2.37044	97.3376
2.36395	97.2693
2.35751	97.324
2.35109	97.4548
2.34471	97.4138
2.33836	97.1912
2.33205	97.0388
2.32578	97.0564
2.31953	97.0623
2.31332	97.1248
2.30714	97.2615
2.301	97.3474
2.29489	97.0271
2.28881	96.8865
2.28276	97.074
2.27675	97.0173
2.27076	97.3298
2.26481	97.3279
2.25889	97.0955
2.253	97.0857
2.24714	97.1189
2.24131	96.9919
2.23551	97.1501
2.22974	97.1892
2.224	97.1111
2.21829	97.1033
2.21261	97.0232
2.20696	97.0798
2.20134	97.0564
2.19574	96.9451
2.19018	97.2029
2.18464	97.2537
2.17913	96.4373
2.17365	96.9099
2.16819	97.0427
2.16277	97.1443
2.15737	97.3201
2.15199	96.8044
2.14665	96.8083
2.14133	96.7107
2.13603	96.8787
2.13077	97.0779
2.12552	96.7693
2.12031	96.699
2.11512	96.8357
2.10995	96.7927
2.10481	96.7654
2.0997	97.0193
2.09461	96.8904
2.08954	96.7732
2.0845	97.2888
2.07948	96.8162
