Name: Montmorillonite (Na,Ca)0.33(Al,Mg)2Si4O10(OH)2.nH2O
Type: Mineral
Class: Silicates
Subclass: Phyllosilicates (Sheet Silicates); (SmectiteGroup)
Particle Size: Fine  (Less than 2  Micrometers)
Sample No.: montmor.3
Owner: JHU
Wavelength Range: IR
Origin: Apache Co., Arizona via Roger Clark, USGS #SAZ-1 (CMS),
Description: The sample is a light brown, earthy clay. Both bulk
Measurement: Transmission
X Units: Wavelength (micrometers)
Y Units: Transmittance (percent)
wavelength	value
25.044	70.9373
24.339	63.9881
23.672	55.0741
23.041	49.0018
22.442	44.3593
21.874	39.789
21.334	38.1347
20.82	49.0565
20.33	59.9139
19.863	57.4022
19.416	47.0936
18.99	48.16
18.581	54.1913
18.19	58.5233
17.815	62.4256
17.455	65.1571
17.109	66.7313
16.777	68.5633
16.458	70.4373
16.15	70.3514
15.854	73.2928
15.568	79.9842
15.292	82.6219
15.027	84.0125
14.77	85.2898
14.521	86.0662
14.281	87.0203
14.049	88.3884
13.824	89.6487
13.607	90.4548
13.396	91.2463
13.191	91.4592
12.993	90.9729
12.8	89.4334
12.614	88.9397
12.432	88.5877
12.256	87.3538
12.084	84.0174
11.918	80.8147
11.755	81.4847
11.598	82.9783
11.444	81.8265
11.294	79.4549
11.149	76.5589
11.007	71.6917
10.868	71.3655
10.733	73.4559
10.602	70.4979
10.473	64.4847
10.348	56.0975
10.225	46.6942
10.106	38.956
9.989	33.6855
9.875	30.3486
9.763	28.5024
9.654	28.8739
9.547	31.8808
9.443	36.4926
9.341	40.7543
9.241	43.41
9.143	45.1766
9.047	46.8602
8.954	49.3671
8.862	53.4593
8.772	57.3221
8.684	60.6805
8.597	63.7581
8.513	66.6458
8.43	69.7054
8.348	73.1102
8.268	75.9148
8.19	78.2283
8.113	80.0711
8.037	81.5528
7.963	82.8055
7.891	83.8753
7.819	84.7908
7.749	85.6155
7.68	86.3406
7.613	86.9903
7.546	87.6387
7.481	88.2415
7.417	88.7976
7.353	89.3174
7.291	89.8181
7.23	90.2595
7.17	90.3096
7.111	90.6834
7.053	91.116
6.996	91.2754
6.94	91.5408
6.885	91.8103
6.83	91.9158
6.777	92.1016
6.724	92.5369
6.672	92.9522
6.621	93.209
6.571	93.4805
6.521	93.5615
6.472	93.6912
6.424	93.8213
6.377	93.7376
6.33	93.4031
6.284	92.8203
6.238	91.8533
6.194	89.2793
6.15	86.8447
6.106	87.5567
6.063	89.2149
6.021	90.3547
5.979	91.1687
5.938	92.4336
5.898	93.3914
5.858	94.03
5.818	94.4353
5.779	94.6707
5.741	94.9773
5.703	95.1785
5.666	95.2986
5.629	95.46
5.592	95.5276
5.556	95.5544
5.521	95.5095
5.486	95.5388
5.451	95.6221
5.417	95.7051
5.383	95.791
5.35	95.9434
5.317	96.1426
5.285	96.2607
5.252	96.3789
5.221	96.5029
5.189	96.5937
5.158	96.708
5.128	96.8193
5.097	96.8699
5.068	96.9744
5.038	97.0681
5.009	97.1536
4.98	97.283
4.951	97.4075
4.923	97.4553
4.895	97.5178
4.868	97.6067
4.84	97.6462
4.814	97.7009
4.787	97.7371
4.76	97.78
4.734	97.7888
4.709	97.842
4.683	97.9065
4.658	97.9353
4.633	97.9841
4.608	98.0417
4.584	98.1257
4.56	98.1672
4.536	98.2034
4.512	98.2117
4.488	98.3005
4.465	98.3513
4.442	98.4104
4.42	98.5085
4.397	98.5998
4.375	98.6785
4.353	98.6404
4.331	98.7161
4.309	98.6995
4.288	98.6033
4.267	98.7126
4.246	98.8201
4.225	98.8235
4.205	98.9675
4.184	99.0764
4.164	99.1531
4.144	99.1453
4.124	99.1755
4.105	99.26
4.085	99.2859
4.066	99.28
4.047	99.3103
4.028	99.3132
4.009	99.363
3.991	99.3323
3.973	99.3967
3.954	99.4475
3.936	99.4807
3.918	99.5837
3.901	99.553
3.883	99.5525
3.866	99.5554
3.849	99.6716
3.832	99.7156
3.815	99.7126
3.798	99.7751
3.781	99.7771
3.765	99.7302
3.748	99.7829
3.732	99.7756
3.716	99.7878
3.7	99.7507
3.685	99.7756
3.669	99.7776
3.653	99.8083
3.638	99.8284
3.623	99.8318
3.608	99.8191
3.593	99.8166
3.578	99.7869
3.563	99.8069
3.548	99.7869
3.534	99.8635
3.519	99.9377
3.505	100.109
3.491	99.9768
3.477	99.8967
3.463	99.8772
3.449	99.9949
3.435	100.081
3.422	100.299
3.408	100.047
3.395	99.8454
3.382	99.6741
3.369	99.5408
3.355	99.322
3.342	99.1682
3.33	99.0061
3.317	98.9587
3.304	98.8708
3.292	98.7341
3.279	98.6287
3.267	98.4792
3.254	98.1814
3.242	98.0388
3.23	97.7742
3.218	97.5242
3.206	97.2498
3.194	96.9158
3.182	96.4734
3.171	96.1707
3.159	95.7214
3.148	95.2107
3.136	94.6902
3.125	94.1345
3.114	93.6912
3.102	93.156
3.091	92.8962
3.08	92.572
3.069	92.3396
3.058	91.989
3.048	91.4841
3.037	90.8406
3.026	90.1502
3.016	89.3826
3.005	88.5642
2.995	87.8279
2.985	87.3631
2.974	86.656
2.964	85.9138
2.954	85.5945
2.944	85.3435
2.934	85.2068
2.924	85.1658
2.914	85.1648
2.904	85.4158
2.895	85.6052
2.885	85.8631
2.875	86.1883
2.866	86.4265
2.856	86.7234
2.847	87.2849
2.838	87.782
2.828	88.0642
2.819	88.0008
2.81	87.6414
2.801	87.0125
2.792	85.6609
2.783	83.6961
2.774	81.6365
2.765	80.0057
2.756	80.2234
2.747	82.7791
2.739	85.825
2.73	88.2693
2.721	90.7156
2.713	92.863
2.704	94.6248
2.696	96.2048
2.687	97.1365
2.679	97.6804
2.671	97.9783
2.663	98.1414
2.654	98.2615
2.646	98.3562
2.638	98.5974
2.63	98.6599
2.622	98.8318
2.614	98.8943
2.606	99.0037
2.599	99.0095
2.591	99.1892
2.583	99.3474
2.575	99.3943
2.568	99.4431
2.56	99.4021
2.553	99.3806
2.545	99.5564
2.538	99.6091
2.53	99.4861
2.523	99.4412
2.515	99.6892
2.508	99.8279
2.501	99.8142
2.494	99.7947
2.486	99.8611
2.479	100.066
2.472	99.9997
2.465	100.152
2.458	100.056
2.451	100.101
2.444	100.164
2.437	100.236
2.43	100.205
2.424	100.195
2.417	100.019
2.41	100.582
2.403	100.406
2.397	100.213
2.39	100.283
2.384	100.652
2.377	100.648
2.37	100.812
2.364	100.722
2.358	100.515
2.351	100.617
2.345	101.031
2.338	100.9
2.332	100.785
2.326	100.867
2.32	100.908
2.313	101.086
2.307	101.094
2.301	101.054
2.295	101.228
2.289	101.244
2.283	101.213
2.277	101.408
2.271	101.453
2.265	101.351
2.259	101.285
2.253	101.433
2.247	101.566
2.241	101.449
2.236	102.008
2.23	101.484
2.224	101.304
2.218	101.547
2.213	101.758
2.207	101.742
2.201	101.937
2.196	101.855
2.19	102.117
2.185	102.031
2.179	101.969
2.174	102.086
2.168	102.422
2.163	102.484
2.157	102.179
2.152	102.586
2.147	102.453
2.141	102.437
2.136	102.047
2.131	102.57
2.126	102.332
2.12	102.715
2.115	102.882
2.11	102.816
2.105	102.672
2.1	103.156
2.095	102.851
2.09	103.191
2.085	103.203
2.079	102.547
