Name: Enstatite Mg2Si2O6
Type: Mineral
Class: Silicates
Subclass: Inosilicates (Chain Silicates) (Pyroxene Group)
Particle Size: Coarse  (74-250 Micrometers)
Sample No.: enstatite.1
Owner: JHU
Wavelength Range: IR
Origin: Sample from Frank Smith Mine, near Barkly Wes, South
Description: Sample was a single light green piece, apparently part of
Measurement: Bidirectional reflectance
X Units: Wavelength (micrometers)
Y Units: Reflectance (percent)
wavelength	value
25.0442	5.6721
24.3388	5.092
23.6719	4.8996
23.0407	5.728
22.4422	6.5202
21.8741	7.2612
21.334	6.8735
20.8199	7.1328
20.33	8.1924
19.8627	9.6562
19.4163	10.508
18.9896	9.1396
18.5812	8.5171
18.19	9.0097
17.815	7.4346
17.4551	8.1504
17.1094	7.4971
16.7772	6.1479
16.4576	5.1572
16.15	3.2229
15.8537	2.4956
15.568	2.4841
15.2925	2.6907
15.0265	2.1077
14.7697	2.4346
14.5214	2.9448
14.2814	2.7029
14.0492	2.3198
13.8244	2.5957
13.6067	2.1785
13.3957	2.3088
13.1912	2.386
12.9929	2.5212
12.8004	2.7251
12.6135	2.8689
12.432	2.9978
12.2557	3.25
12.0843	3.5354
11.9176	4.0037
11.7555	4.7236
11.5977	5.3552
11.444	5.6113
11.2944	4.563
11.1487	4.0449
11.0067	3.7444
10.8682	4.7966
10.7332	5.6235
10.6015	5.5925
10.473	6.1203
10.3476	5.978
10.2251	6.1633
10.1056	5.5246
9.98873	5.1352
9.87458	5.9451
9.763	5.1321
9.65392	4.6545
9.54724	6.3071
9.44291	6.6323
9.34082	7.0508
9.24091	7.0896
9.14312	6.9018
9.04739	7.0564
8.95363	7.3352
8.8618	7.2793
8.77183	7.1963
8.68368	7.2097
8.59727	5.541
8.51257	3.2815
8.42951	1.1521
8.34807	0.4346
8.26819	0.6003
8.18981	0.7864
8.11292	0.9658
8.03745	1.1267
7.96337	1.2822
7.89064	1.4182
7.81924	1.5566
7.74911	1.675
7.68023	1.7878
7.61256	1.8979
7.54608	2.0142
7.48074	2.1157
7.41653	2.2004
7.35341	2.2707
7.29136	2.3691
7.23034	2.448
7.17033	2.5483
7.11132	2.5991
7.05327	2.594
6.99616	2.5974
6.93996	2.6692
6.88467	2.7231
6.83024	2.7864
6.77667	2.8039
6.72393	2.7893
6.67201	2.7422
6.62089	2.7664
6.57054	2.8848
6.52095	2.9397
6.4721	2.8752
6.42398	2.7683
6.37657	2.5864
6.32986	2.456
6.28382	2.4551
6.23845	2.4665
6.19373	2.4868
6.14965	2.5923
6.10619	2.6521
6.06334	2.6296
6.02109	2.633
5.97942	2.8242
5.93832	3.1304
5.89778	3.332
5.8578	3.3301
5.81835	3.2996
5.77943	3.3213
5.74103	3.3352
5.70314	3.3894
5.66574	3.4289
5.62883	3.5268
5.5924	3.675
5.55644	3.9128
5.52093	4.0666
5.48588	4.0386
5.45127	4.0361
5.41709	4.1633
5.38334	4.3769
5.35	4.4473
5.31708	4.4241
5.28456	4.3301
5.25243	4.2258
5.2207	4.1035
5.18934	3.8523
5.15836	3.5774
5.12775	3.5264
5.09749	3.6499
5.0676	3.8103
5.03805	3.9846
5.00884	4.155
4.97998	4.2891
4.95144	4.363
4.92322	4.3596
4.89533	4.3516
4.86775	4.2934
4.84048	4.2673
4.81351	4.3569
4.78684	4.5657
4.76047	4.8579
4.73439	5.1274
4.70859	5.3362
4.68306	5.5193
4.65782	5.6626
4.63284	5.9302
4.60814	6.3393
4.58369	6.7651
4.5595	7.1218
4.53557	7.4446
4.51188	7.7158
4.48845	7.8647
4.46525	7.9309
4.44229	7.9717
4.41957	8.0095
4.39708	8.0361
4.37481	8.0688
4.35277	8.0796
4.33096	8.0915
4.30935	8.1059
4.28797	8.1247
4.26679	8.1655
4.24583	8.2085
4.22506	8.2297
4.2045	8.2536
4.18414	8.2732
4.16398	8.3047
4.14401	8.324
4.12423	8.3511
4.10464	8.374
4.08523	8.4057
4.066	8.4172
4.04696	8.4365
4.02809	8.4524
4.0094	8.4624
3.99088	8.4468
3.97253	8.4761
3.95435	8.497
3.93634	8.5093
3.91848	8.5285
3.90079	8.5349
3.88326	8.5356
3.86589	8.5334
3.84867	8.5342
3.8316	8.5232
3.81468	8.511
3.79791	8.5034
3.78129	8.5014
3.76482	8.5005
3.74848	8.4912
3.73229	8.48
3.71624	8.4641
3.70032	8.4404
3.68454	8.4197
3.6689	8.4079
3.65338	8.386
3.638	8.383
3.62275	8.3711
3.60762	8.3513
3.59262	8.3293
3.57775	8.2976
3.56299	8.271
3.54836	8.2414
3.53385	8.2097
3.51945	8.1533
3.50517	8.0937
3.49101	8.0705
3.47696	8.04
3.46303	8.0068
3.4492	7.9643
3.43549	7.9133
3.42188	7.8833
3.40838	7.8511
3.39499	7.8811
3.38171	7.8662
3.36852	7.81
3.35544	7.6977
3.34246	7.8074
3.32958	7.8681
3.3168	7.8708
3.30411	7.8533
3.29153	7.8247
3.27903	7.7969
3.26664	7.7644
3.25433	7.7353
3.24212	7.7092
3.23	7.6621
3.21797	7.6262
3.20603	7.593
3.19418	7.5696
3.18241	7.5356
3.17074	7.5
3.15914	7.4441
3.14763	7.3872
3.13621	7.3484
3.12487	7.3078
3.11361	7.2585
3.10243	7.2334
3.09133	7.198
3.0803	7.1584
3.06936	7.1384
3.0585	7.1074
3.04771	7.0703
3.037	7.0254
3.02636	7.0027
3.0158	6.9587
3.00531	6.9206
2.99489	6.8943
2.98454	6.8467
2.97427	6.792
2.96407	6.7261
2.95393	6.6889
2.94387	6.6228
2.93387	6.5972
2.92394	6.5749
2.91408	6.5605
2.90429	6.529
2.89456	6.4919
2.88489	6.4353
2.87529	6.3757
2.86576	6.301
2.85628	6.1994
2.84687	6.1037
2.83752	5.987
2.82823	5.9097
2.81901	5.7805
2.80984	5.6321
2.80073	5.5576
2.79168	5.5395
2.78269	5.5032
2.77376	5.4753
2.76488	5.4355
2.75606	5.3281
2.7473	5.241
2.73859	5.1052
2.72994	4.884
2.72134	4.5403
2.7128	4.1736
2.70431	4.3679
2.69587	5.4241
2.68748	6.8257
2.67915	8.0393
2.67087	8.7998
2.66264	9.144
2.65446	9.2063
2.64633	9.2207
2.63825	9.2217
2.63021	9.2473
2.62223	9.2427
2.6143	9.249
2.60641	9.1902
2.59857	9.1855
2.59078	9.1699
2.58304	9.1526
2.57534	9.1306
2.56768	9.073
2.56008	9.0427
2.55251	9.032
2.54499	9.0451
2.53752	9.0034
2.53009	8.9966
2.5227	8.9594
2.51536	8.9262
2.50806	8.9043
2.5008	8.8825
2.49358	8.8762
2.4864	8.8266
2.47927	8.8386
2.47218	8.8159
2.46512	8.8142
2.45811	8.779
2.45114	8.7605
2.4442	8.717
2.43731	8.677
2.43045	8.6833
2.42363	8.6279
2.41685	8.6499
2.41011	8.635
2.40341	8.6028
2.39674	8.519
2.39011	8.4873
2.38352	8.4353
2.37696	8.4221
2.37044	8.4284
2.36395	8.4284
2.35751	8.4089
2.35109	8.3838
2.34471	8.2912
2.33836	8.2304
2.33205	8.1484
2.32578	8.1006
2.31953	8.0332
2.31332	8.0246
2.30714	8.0708
2.301	8.053
2.29489	8.0654
2.28881	8.0508
2.28276	8.0058
2.27675	8.019
2.27076	7.99
2.26481	7.9768
2.25889	7.9575
2.253	7.9321
2.24714	7.9092
2.24131	7.875
2.23551	7.8364
2.22974	7.8196
2.224	7.7671
2.21829	7.7292
2.21261	7.7107
2.20696	7.6687
2.20134	7.6367
2.19574	7.5918
2.19018	7.55
2.18464	7.5083
2.17913	7.4641
2.17365	7.4189
2.16819	7.3301
2.16277	7.3418
2.15737	7.2895
2.15199	7.2409
2.14665	7.196
2.14133	7.1445
2.13603	7.1133
2.13077	7.039
2.12552	7.0017
2.12031	6.9609
2.11512	6.9033
2.10995	6.8572
2.10481	6.7837
2.0997	6.7456
2.09461	6.7324
2.08954	6.6692
2.0845	6.6245
2.07948	6.5334
