Name: Barite, BaSO4
Type: Mineral
Class: Sulfates
Particle Size: Coarse  (74-250 Micrometers)
Sample No.: barite.1
Owner: JHU
Wavelength Range: IR
Origin: Norma Vergo Sample from Carterville, Georgia.
Description: The pure white sample appeared to be pure barite with
Measurement: Bidirectional reflectance
X Units: Wavelength (micrometers)
Y Units: Reflectance (percent)
wavelength	value
25.0442	5.2778
24.3388	5.978
23.6719	6.6164
23.0407	6.9387
22.4422	6.6753
21.8741	6.5007
21.334	4.8765
20.8199	6.5176
20.33	7.124
19.8627	6.7363
19.4163	6.083
18.9896	5.521
18.5812	4.7395
18.19	4.0818
17.815	3.6228
17.4551	2.9324
17.1094	2.1182
16.7772	2.0098
16.4576	3.2478
16.15	2.8318
15.8537	1.4482
15.568	1.6982
15.2925	1.0718
15.0265	0.8152
14.7697	1.8862
14.5214	2.5373
14.2814	2.4687
14.0492	2.7266
13.8244	3.2786
13.6067	3.4919
13.3957	3.7915
13.1912	3.883
12.9929	3.5078
12.8004	3.1074
12.6135	3.0151
12.432	3.0146
12.2557	3.1079
12.0843	3.4761
11.9176	4.189
11.7555	4.9055
11.5977	5.0369
11.444	4.386
11.2944	3.7236
11.1487	3.3684
11.0067	3.0371
10.8682	2.7954
10.7332	2.8884
10.6015	2.7356
10.473	2.3992
10.3476	1.7971
10.2251	1.5183
10.1056	1.374
9.98873	1.709
9.87458	1.6809
9.763	1.7126
9.65392	1.8555
9.54724	2.1072
9.44291	2.604
9.34082	3.3064
9.24091	3.8992
9.14312	4.6597
9.04739	5.3623
8.95363	5.865
8.8618	6.0764
8.77183	5.8379
8.68368	4.7283
8.59727	3.9805
8.51257	3.2913
8.42951	2.6997
8.34807	2.3284
8.26819	2.2231
8.18981	2.4099
8.11292	2.4643
8.03745	1.6941
7.96337	1.0347
7.89064	0.5481
7.81924	0.4397
7.74911	0.6018
7.68023	0.8962
7.61256	1.2495
7.54608	1.6606
7.48074	1.9614
7.41653	2.2356
7.35341	2.8149
7.29136	3.5627
7.23034	4.5818
7.17033	5.2222
7.11132	5.7681
7.05327	6.6719
6.99616	6.7773
6.93996	6.4089
6.88467	7.2888
6.83024	7.6111
6.77667	7.8498
6.72393	7.8298
6.67201	7.498
6.62089	6.3567
6.57054	4.5962
6.52095	3.425
6.4721	3.3259
6.42398	3.4993
6.37657	4.2546
6.32986	4.7178
6.28382	3.3437
6.23845	3.4617
6.19373	4.2927
6.14965	4.967
6.10619	6.3638
6.06334	7.4438
6.02109	7.8391
5.97942	8.2178
5.93832	8.4306
5.89778	8.4582
5.8578	8.3105
5.81835	8.2842
5.77943	8.5027
5.74103	8.5969
5.70314	8.6177
5.66574	8.6802
5.62883	8.8034
5.5924	8.8926
5.55644	8.9089
5.52093	8.9255
5.48588	9.0127
5.45127	9.1316
5.41709	9.3271
5.38334	9.6755
5.35	9.9416
5.31708	10.1257
5.28456	10.1714
5.25243	10.1447
5.2207	10.1135
5.18934	9.8337
5.15836	9.6911
5.12775	8.9699
5.09749	5.8645
5.0676	6.9492
5.03805	8.675
5.00884	8.3027
4.97998	7.5774
4.95144	6.2781
4.92322	4.3935
4.89533	2.3281
4.86775	1.7803
4.84048	1.4834
4.81351	1.7576
4.78684	1.8284
4.76047	2.0105
4.73439	2.0696
4.70859	1.7903
4.68306	1.6743
4.65782	1.8401
4.63284	2.2742
4.60814	2.2932
4.58369	2.2273
4.5595	2.0745
4.53557	2.2859
4.51188	2.7117
4.48845	3.0786
4.46525	3.1997
4.44229	3.3081
4.41957	3.5266
4.39708	3.8183
4.37481	4.0427
4.35277	4.3406
4.33096	4.5308
4.30935	4.364
4.28797	4.1196
4.26679	4.1882
4.24583	4.3808
4.22506	4.8017
4.2045	5.5012
4.18414	6.4975
4.16398	7.7004
4.14401	8.5403
4.12423	9.145
4.10464	9.6255
4.08523	9.9963
4.066	10.353
4.04696	10.6006
4.02809	10.7695
4.0094	10.9045
3.99088	10.9558
3.97253	10.9878
3.95435	11.0874
3.93634	11.2082
3.91848	11.3393
3.90079	11.3044
3.88326	11.115
3.86589	11.1716
3.84867	11.3383
3.8316	11.4836
3.81468	11.6457
3.79791	11.7102
3.78129	11.7197
3.76482	11.7072
3.74848	11.695
3.73229	11.7107
3.71624	11.7182
3.70032	11.7141
3.68454	11.7173
3.6689	11.705
3.65338	11.6831
3.638	11.6411
3.62275	11.603
3.60762	11.5737
3.59262	11.542
3.57775	11.5215
3.56299	11.4944
3.54836	11.4416
3.53385	11.4023
3.51945	11.3537
3.50517	11.323
3.49101	11.2888
3.47696	11.2761
3.46303	11.2309
3.4492	11.2068
3.43549	11.1667
3.42188	11.1274
3.40838	11.0588
3.39499	10.9297
3.38171	11.0686
3.36852	11.0566
3.35544	11.0329
3.34246	10.9511
3.32958	10.7859
3.3168	10.426
3.30411	10.0478
3.29153	10.1291
3.27903	10.1589
3.26664	10.2405
3.25433	10.2424
3.24212	10.271
3.23	10.1562
3.21797	9.9734
3.20603	9.876
3.19418	9.8193
3.18241	9.758
3.17074	9.678
3.15914	9.6252
3.14763	9.583
3.13621	9.5134
3.12487	9.4516
3.11361	9.3764
3.10243	9.3135
3.09133	9.2563
3.0803	9.2319
3.06936	9.1963
3.0585	9.1506
3.04771	9.1152
3.037	9.0744
3.02636	9.0595
3.0158	9.0417
3.00531	9.0271
2.99489	8.9968
2.98454	8.9624
2.97427	8.9367
2.96407	8.8979
2.95393	8.8728
2.94387	8.855
2.93387	8.8305
2.92394	8.8347
2.91408	8.8198
2.90429	8.8418
2.89456	8.8462
2.88489	8.8755
2.87529	8.9018
2.86576	8.9331
2.85628	8.9721
2.84687	9.0263
2.83752	9.1174
2.82823	9.1963
2.81901	9.3022
2.80984	9.4287
2.80073	9.5595
2.79168	9.7187
2.78269	9.8613
2.77376	10.0542
2.76488	10.2568
2.75606	10.4453
2.7473	10.6421
2.73859	10.79
2.72994	10.9531
2.72134	11.0532
2.7128	11.1831
2.70431	11.2749
2.69587	11.355
2.68748	11.4443
2.67915	11.4887
2.67087	11.499
2.66264	11.5549
2.65446	11.5749
2.64633	11.5791
2.63825	11.5835
2.63021	11.5405
2.62223	11.561
2.6143	11.541
2.60641	11.5244
2.59857	11.5478
2.59078	11.521
2.58304	11.4875
2.57534	11.4753
2.56768	11.4428
2.56008	11.438
2.55251	11.4472
2.54499	11.4267
2.53752	11.4248
2.53009	11.427
2.5227	11.3789
2.51536	11.3574
2.50806	11.3457
2.5008	11.3249
2.49358	11.3261
2.4864	11.3571
2.47927	11.3308
2.47218	11.3
2.46512	11.3354
2.45811	11.3093
2.45114	11.2917
2.4442	11.2895
2.43731	11.2737
2.43045	11.2514
2.42363	11.2827
2.41685	11.2475
2.41011	11.2519
2.40341	11.2373
2.39674	11.2446
2.39011	11.2202
2.38352	11.2075
2.37696	11.1943
2.37044	11.1836
2.36395	11.1718
2.35751	11.1858
2.35109	11.144
2.34471	11.1474
2.33836	11.1167
2.33205	11.0891
2.32578	11.1533
2.31953	11.1135
2.31332	11.1172
2.30714	11.1245
2.301	11.1064
2.29489	11.0908
2.28881	11.1438
2.28276	11.1025
2.27675	11.0725
2.27076	11.0942
2.26481	11.0918
2.25889	11.1006
2.253	11.1194
2.24714	11.0891
2.24131	11.1152
2.23551	11.1115
2.22974	11.1045
2.224	11.1777
2.21829	11.1418
2.21261	11.0988
2.20696	11.1543
2.20134	11.174
2.19574	11.1623
2.19018	11.1877
2.18464	11.218
2.17913	11.2197
2.17365	11.1709
2.16819	11.1396
2.16277	11.2182
2.15737	11.1987
2.15199	11.2632
2.14665	11.2539
2.14133	11.2334
2.13603	11.2485
2.13077	11.2573
2.12552	11.2885
2.12031	11.2763
2.11512	11.3183
2.10995	11.3867
2.10481	11.3877
2.0997	11.3803
2.09461	11.4394
2.08954	11.4887
2.0845	11.4575
2.07948	11.5053
