Name: Aragonite CaCO3
Type: Mineral
Class: Carbonates
Particle Size: Fine (less than 2 Micrometers)
Sample No.: aragonite.1
Owner: JHU
Wavelength Range: IR
Origin: Sample from Horenec, Bilina, Cechy, Czechoslovakia, via
Description: The sample was composed of two transparent, colorless
Measurement: Transmission
X Units: Wavelength (micrometers)
Y Units: Transmittance (percent)
wavelength	value
25.044	92.0076
24.339	90.906
23.672	91.9529
23.041	93.406
22.442	94.1658
21.874	95.3455
21.334	94.1033
20.82	95.0408
20.33	96.322
19.863	96.9451
19.416	97.4705
18.99	98.1609
18.581	98.2712
18.19	98.2224
17.815	98.0749
17.455	97.7068
17.109	97.4099
16.777	97.782
16.458	97.7322
16.15	97.8201
15.854	98.8552
15.568	99.6843
15.292	99.7781
15.027	99.2634
14.77	99.4333
14.521	98.0955
14.281	83.075
14.049	73.3963
13.824	96.6443
13.607	97.6326
13.396	97.406
13.191	97.2366
12.993	97.4299
12.8	96.9841
12.614	97.7288
12.432	98.2058
12.256	98.1897
12.084	97.2234
11.918	92.7673
11.755	71.6116
11.598	24.6391
11.444	82.9964
11.294	94.0466
11.149	97.1248
11.007	96.4197
10.868	97.0369
10.733	97.823
10.602	97.8733
10.473	97.5115
10.348	97.0276
10.225	96.3835
10.106	95.8191
9.989	95.1213
9.875	94.0398
9.763	93.1721
9.654	93.4104
9.547	93.3323
9.443	92.762
9.341	92.0232
9.241	79.991
9.143	92.8323
9.047	93.0667
8.954	93.1467
8.862	92.4656
8.772	91.9988
8.684	91.8528
8.597	91.4797
8.513	90.9949
8.43	90.781
8.348	90.8699
8.268	90.8565
8.19	90.0618
8.113	89.2595
8.037	88.1736
7.963	87.2517
7.891	86.0303
7.819	84.5301
7.749	83.2608
7.68	81.6436
7.613	80.0896
7.546	78.043
7.481	75.4148
7.417	72.0096
7.353	68.095
7.291	63.2118
7.23	56.8436
7.17	48.8651
7.111	40.0871
7.053	30.9777
6.996	22.8654
6.94	13.0566
6.885	5.4043
6.83	2.6992
6.777	0.7893
6.724	1.1865
6.672	2.5188
6.621	4.7793
6.571	9.5771
6.521	19.2524
6.472	32.1877
6.424	43.9103
6.377	51.5216
6.33	60.5147
6.284	66.2518
6.238	68.7791
6.194	69.9962
6.15	71.8536
6.106	74.7354
6.063	77.0625
6.021	77.419
5.979	78.8995
5.938	83.1429
5.898	86.3985
5.858	88.4802
5.818	89.6936
5.779	90.8145
5.741	91.7791
5.703	92.6914
5.666	93.3484
5.629	90.667
5.592	83.2276
5.556	90.6248
5.521	94.489
5.486	95.3584
5.451	95.9062
5.417	96.3015
5.383	96.6084
5.35	96.959
5.317	97.2107
5.285	97.4385
5.252	97.668
5.221	97.8301
5.189	98.0078
5.158	98.1208
5.128	98.238
5.097	98.376
5.068	98.4675
5.038	98.5647
5.009	98.718
4.98	98.8025
4.951	98.8586
4.923	98.9665
4.895	99.0549
4.868	99.094
4.84	99.2107
4.814	99.2112
4.787	99.2912
4.76	99.3108
4.734	99.3083
4.709	99.2849
4.683	99.2966
4.658	99.2639
4.633	99.2761
4.608	99.4177
4.584	99.4465
4.56	99.4636
4.536	99.5925
4.512	99.5671
4.488	99.6902
4.465	99.6995
4.442	99.7053
4.42	99.7204
4.397	99.7385
4.375	99.7995
4.353	99.7649
4.331	99.7375
4.309	99.7204
4.288	99.6853
4.267	99.6897
4.246	99.6604
4.225	99.6619
4.205	99.6721
4.184	99.6946
4.164	99.7302
4.144	99.7131
4.124	99.7029
4.105	99.5686
4.085	99.6277
4.066	99.3415
4.047	98.7849
4.028	97.2869
4.009	95.49
3.991	95.1331
3.973	94.2156
3.954	94.2288
3.936	96.1609
3.918	96.2253
3.901	97.426
3.883	98.0002
3.866	98.282
3.849	98.5725
3.832	98.5666
3.815	98.5124
3.798	98.6648
3.781	98.8303
3.765	99.2639
3.748	99.7038
3.732	99.7722
3.716	99.7556
3.7	99.6716
3.685	99.7751
3.669	99.758
3.653	99.6716
3.638	99.7859
3.623	99.6662
3.608	99.594
3.593	99.5471
3.578	99.6628
3.563	99.405
3.548	99.4651
3.534	99.2859
3.519	98.8611
3.505	97.7634
3.491	98.5017
3.477	98.4978
3.463	98.4123
3.449	97.676
3.435	96.4861
3.422	95.238
3.408	96.1956
3.395	97.0076
3.382	97.0544
3.369	97.2966
3.355	97.0745
3.342	97.1975
3.33	97.8591
3.317	98.0945
3.304	98.2932
3.292	98.3479
3.279	98.324
3.267	98.2908
3.254	98.2458
3.242	98.1521
3.23	97.9001
3.218	97.5447
3.206	97.3455
3.194	97.2146
3.182	97.0623
3.171	96.6755
3.159	96.2966
3.148	95.8249
3.136	95.3992
3.125	94.946
3.114	94.7175
3.102	94.8132
3.091	94.6834
3.08	94.4431
3.069	94.2595
3.058	94.1834
3.048	94.4177
3.037	94.0173
3.026	93.5164
3.016	92.6365
3.005	91.908
2.995	91.3728
2.985	90.9724
2.974	90.0818
2.964	89.0203
2.954	88.0818
2.944	87.3015
2.934	86.5408
2.924	85.8836
2.914	85.7547
2.904	86.0564
2.895	86.4881
2.885	87.2244
2.875	87.8797
2.866	88.8748
2.856	89.4451
2.847	90.239
2.838	91.0046
2.828	91.4539
2.819	91.8884
2.81	92.1921
2.801	92.8728
2.792	93.3093
2.783	93.988
2.774	94.4851
2.765	95.0203
2.756	95.5789
2.747	95.8318
2.739	96.2429
2.73	96.2751
2.721	96.5789
2.713	96.4734
2.704	96.4333
2.696	96.574
2.687	96.6267
2.679	96.5544
2.671	96.614
2.663	96.5359
2.654	96.199
2.646	96.2273
2.638	96.4617
2.63	96.071
2.622	96.1179
2.614	96.0476
2.606	95.9451
2.599	95.9958
2.591	96.1306
2.583	96.031
2.575	95.8845
2.568	95.7712
2.56	95.7029
2.553	95.6443
2.545	95.7654
2.538	95.533
2.53	95.5037
2.523	95.3044
2.515	95.5271
2.508	95.4373
2.501	95.3298
2.494	95.2908
2.486	95.2849
2.479	95.2849
2.472	95.2458
2.465	95.1423
2.458	95.0408
2.451	95.1365
2.444	94.8923
2.437	94.906
2.43	94.9861
2.424	95.0037
2.417	94.9626
2.41	94.8689
2.403	94.947
2.397	94.6209
2.39	94.8162
2.384	94.7185
2.377	95.0251
2.37	94.6189
2.364	94.4314
2.358	94.5955
2.351	94.7498
2.345	94.533
2.338	94.3376
2.332	94.1189
2.326	94.238
2.32	94.2673
2.313	94.1873
2.307	94.3943
2.301	94.6013
2.295	93.9861
2.289	94.2673
2.283	94.0251
2.277	94.0251
2.271	94.4177
2.265	94.2419
2.259	93.7185
2.253	93.6267
2.247	93.7498
2.241	94.0095
2.236	93.8904
2.23	94.2361
2.224	93.8923
2.218	94.1248
2.213	93.4216
2.207	94.0408
2.201	93.658
2.196	93.8865
2.19	93.8123
2.185	93.8748
2.179	93.2576
2.174	93.6716
2.168	93.8669
2.163	93.7341
2.157	93.5701
2.152	93.8396
2.147	93.1091
2.141	93.4099
2.136	93.4255
2.131	93.449
2.126	93.3357
2.12	93.2771
2.115	93.5037
2.11	93.2107
2.105	93.3748
2.1	93.3318
2.095	93.6404
2.09	93.2146
2.085	93.7185
2.079	93.0544
