Name: Topaz Al2SiO4(F,OH)2
Type: Mineral
Class: Silicates
Subclass: Nesosilicates (Isolated tetrahedra)
Particle Size: Fine  (Less than 2 Micrometers)
Sample No.: topaz.1
Owner: JHU
Wavelength Range: IR
Origin: Rhondonia, Brazil via Don Hoover, USGS
Description: The sample was a 1 cm x 1 cm x 1 cm fragment of a
Measurement: Transmission
X Units: Wavelength (micrometers)
Y Units: Transmittance (percent)
wavelength	value
25.044	57.0936
24.339	68.6404
23.672	54.871
23.041	50.6815
22.442	26.6562
21.874	15.1914
21.334	28.6034
20.82	21.1093
20.33	32.8398
19.863	32.4277
19.416	29.2851
18.99	25.3105
18.581	46.2665
18.19	62.9217
17.815	43.9823
17.455	62.0506
17.109	53.2626
16.777	57.0604
16.458	30.8847
16.15	8.5791
15.854	11.7158
15.568	21.2539
15.292	26.1093
15.027	37.8251
14.77	58.9276
14.521	68.9344
14.281	70.4217
14.049	70.4451
13.824	77.8401
13.607	79.9319
13.396	80.8147
13.191	80.6409
12.993	78.0809
12.8	79.7347
12.614	78.6551
12.432	75.3973
12.256	69.9256
12.084	59.6864
11.918	42.3422
11.755	24.7577
11.598	11.1489
11.444	5.1465
11.294	5.2754
11.149	7.6269
11.007	10.6045
10.868	13.9848
10.733	16.1904
10.602	16.6503
10.473	17.3818
10.348	23.4731
10.225	34.4228
10.106	38.0199
9.989	29.2128
9.875	31.6435
9.763	37.5243
9.654	41.0258
9.547	44.6732
9.443	47.4852
9.341	49.3553
9.241	50.8641
9.143	52.745
9.047	55.3475
8.954	58.161
8.862	60.5643
8.772	62.6395
8.684	63.3743
8.597	54.1732
8.513	65.5545
8.43	72.7776
8.348	77.1697
8.268	80.7676
8.19	83.5901
8.113	85.5789
8.037	87.0652
7.963	88.2383
7.891	89.2615
7.819	89.9656
7.749	90.4092
7.68	90.8125
7.613	91.1311
7.546	91.4756
7.481	91.708
7.417	91.8601
7.353	91.8054
7.291	91.7842
7.23	91.7627
7.17	91.2432
7.111	90.9353
7.053	91.1409
6.996	91.0891
6.94	91.0818
6.885	91.1155
6.83	91.3001
6.777	91.7608
6.724	92.458
6.672	93.0693
6.621	93.3718
6.571	93.6045
6.521	93.5674
6.472	93.543
6.424	93.4763
6.377	93.2229
6.33	92.7185
6.284	92.1941
6.238	91.8496
6.194	91.4109
6.15	90.2236
6.106	90.1387
6.063	90.3533
6.021	90.6018
5.979	91.6113
5.938	92.9902
5.898	94.1326
5.858	94.8533
5.818	95.3633
5.779	95.583
5.741	95.8564
5.703	96.0349
5.666	96.0869
5.629	96.0486
5.592	95.8916
5.556	95.7869
5.521	95.7119
5.486	95.7617
5.451	95.9236
5.417	96.0859
5.383	95.9773
5.35	96.1455
5.317	96.2458
5.285	96.3701
5.252	96.6133
5.221	96.7627
5.189	96.9216
5.158	97.0615
5.128	97.085
5.097	97.179
5.068	97.2019
5.038	97.2283
5.009	97.2617
4.98	97.3328
4.951	97.3518
4.923	97.3323
4.895	97.4221
4.868	97.4407
4.84	97.4451
4.814	97.5354
4.787	97.5261
4.76	97.5134
4.734	97.4866
4.709	97.428
4.683	97.5164
4.658	97.488
4.633	97.5046
4.608	97.6008
4.584	97.5652
4.56	97.6091
4.536	97.6116
4.512	97.5559
4.488	97.5779
4.465	97.5378
4.442	97.5222
4.42	97.5198
4.397	97.5422
4.375	97.5339
4.353	97.6052
4.331	97.5608
4.309	97.4343
4.288	97.5925
4.267	97.5647
4.246	97.5378
4.225	97.5671
4.205	97.5002
4.184	97.5554
4.164	97.5159
4.144	97.5154
4.124	97.4827
4.105	97.4919
4.085	97.4221
4.066	97.5295
4.047	97.5178
4.028	97.4968
4.009	97.5173
3.991	97.4705
3.973	97.531
3.954	97.4431
3.936	97.5808
3.918	97.5295
3.901	97.5261
3.883	97.5027
3.866	97.4128
3.849	97.4695
3.832	97.4675
3.815	97.4353
3.798	97.4001
3.781	97.3367
3.765	97.3186
3.748	97.2346
3.732	97.1453
3.716	97.0193
3.7	97.0105
3.685	97.0124
3.669	96.905
3.653	96.7859
3.638	96.7058
3.623	96.6272
3.608	96.5242
3.593	96.4187
3.578	96.3904
3.563	96.2312
3.548	96.0627
3.534	95.8811
3.519	95.678
3.505	95.1306
3.491	95.1995
3.477	95.1101
3.463	95.0173
3.449	94.6951
3.435	94.3538
3.422	93.6843
3.408	93.6565
3.395	93.8992
3.382	93.7097
3.369	93.7131
3.355	93.5623
3.342	93.3342
3.33	93.1975
3.317	92.8943
3.304	92.7717
3.292	92.4646
3.279	92.3259
3.267	91.9456
3.254	91.7503
3.242	91.3381
3.23	90.8826
3.218	90.5252
3.206	90.1018
3.194	89.7639
3.182	89.3753
3.171	89.1599
3.159	88.6453
3.148	88.2927
3.136	88.0008
3.125	87.7342
3.114	87.3875
3.102	86.9842
3.091	86.7283
3.08	86.5388
3.069	86.1502
3.058	85.9656
3.048	85.6677
3.037	85.3308
3.026	85.2117
3.016	84.9148
3.005	84.4265
2.995	84.2283
2.985	84.1306
2.974	83.989
2.964	84.1756
2.954	84.2127
2.944	84.3289
2.934	84.2703
2.924	84.3015
2.914	84.4588
2.904	84.4392
2.895	84.6287
2.885	84.657
2.875	84.864
2.866	84.9158
2.856	85.3592
2.847	85.9461
2.838	86.4353
2.828	86.9461
2.819	87.408
2.81	87.9529
2.801	88.0789
2.792	88.5047
2.783	88.9256
2.774	89.2273
2.765	89.7673
2.756	90.0896
2.747	86.8142
2.739	74.8885
2.73	93.5779
2.721	94.322
2.713	94.9568
2.704	95.5398
2.696	95.8884
2.687	95.9783
2.679	96.2576
2.671	96.3591
2.663	96.0291
2.654	96.0476
2.646	96.1404
2.638	96.1873
2.63	96.0779
2.622	96.0007
2.614	95.9031
2.606	95.9255
2.599	96.0632
2.591	96.0749
2.583	96.113
2.575	95.9802
2.568	95.9138
2.56	95.8279
2.553	95.6267
2.545	95.6755
2.538	95.6794
2.53	95.74
2.523	95.5505
2.515	95.6365
2.508	95.5876
2.501	95.5818
2.494	95.5857
2.486	95.7068
2.479	95.6248
2.472	95.5095
2.465	95.2107
2.458	95.5173
2.451	95.6345
2.444	95.24
2.437	95.3943
2.43	95.2908
2.424	95.7419
2.417	95.3572
2.41	95.1834
2.403	95.3904
2.397	95.2224
2.39	95.1365
2.384	95.2302
2.377	95.3162
2.37	94.8376
2.364	95.5623
2.358	95.0193
2.351	95.4412
2.345	94.8611
2.338	95.0544
2.332	95.0662
2.326	94.9373
2.32	95.2263
2.313	95.3064
2.307	95.4294
2.301	95.2419
2.295	94.8611
2.289	95.0623
2.283	95.0857
2.277	95.2615
2.271	95.0486
2.265	95.0193
2.259	95.2498
2.253	95.5251
2.247	95.2048
2.241	95.3435
2.236	95.2751
2.23	94.9548
2.224	95.1267
2.218	95.1658
2.213	95.4548
2.207	95.2517
2.201	95.322
2.196	95.1345
2.19	95.2576
2.185	95.3044
2.179	95.2595
2.174	95.3123
2.168	95.5154
2.163	95.699
2.157	95.5583
2.152	95.4412
2.147	95.3904
2.141	95.4177
2.136	95.5037
2.131	95.4919
2.126	95.7537
2.12	95.5896
2.115	95.4216
2.11	95.613
2.105	95.5935
2.1	95.6873
2.095	95.449
2.09	95.7185
2.085	95.2966
2.079	96.1951
