Name: Hemimorphite Zn4Si2O7(OH)2.H2O
Type: Mineral
Class: Silicates
Subclass: Sorosilicates (Two isolated tetrahydra)
Particle Size: Solid (010 crystal face)
Sample No.: hemimor.1
Owner: JHU
Wavelength Range: IR
Origin: Mapimi, Durango, Mexico via the Smithsonian (sample
Description: The sample consisted of two white, translucent
Measurement: Bidirectional reflectance
X Units: Wavelength (micrometers)
Y Units: Reflectance (percent)
wavelength	value
25.0442	16.6289
24.3388	15.7431
23.6719	17.0752
23.0407	17.0019
22.4422	17.4238
21.8741	21.9843
21.334	13.9726
20.8199	16.1196
20.33	17.102
19.8627	17.8115
19.4163	18.4165
18.9896	19.0727
18.5812	19.5947
18.19	21.0246
17.815	29.5529
17.4551	32.3507
17.1094	30.3412
16.7772	30.3058
16.4576	31.8227
16.15	29.9289
15.8537	19.4501
15.568	9.6621
15.2925	9.7265
15.0265	11.3237
14.7697	16.038
14.5214	16.4748
14.2814	15.0542
14.0492	14.9604
13.8244	15.1965
13.6067	15.4668
13.3957	15.7727
13.1912	16.1235
12.9929	16.5468
12.8004	16.8459
12.6135	17.2172
12.432	17.6355
12.2557	18.0651
12.0843	18.5944
11.9176	19.2773
11.7555	20.2568
11.5977	22.0461
11.444	24.8464
11.2944	22.9243
11.1487	20.3906
11.0067	23.6503
10.8682	30.3573
10.7332	44.6058
10.6015	43.9052
10.473	46.0668
10.3476	52.7489
10.2251	54.3827
10.1056	53.1395
9.98873	49.0033
9.87458	41.589
9.763	34.6698
9.65392	25.8674
9.54724	15.1411
9.44291	9.8012
9.34082	11.385
9.24091	13.6533
9.14312	16.9672
9.04739	21.4038
8.95363	26.4401
8.8618	25.132
8.77183	17.1772
8.68368	9.4231
8.59727	8.9275
8.51257	9.5874
8.42951	10.3501
8.34807	10.9795
8.26819	11.4177
8.18981	11.7446
8.11292	12.0149
8.03745	12.2829
7.96337	12.521
7.89064	12.7251
7.81924	12.9035
7.74911	13.0642
7.68023	13.2077
7.61256	13.3852
7.54608	13.4758
7.48074	13.5993
7.41653	13.6892
7.35341	13.8354
7.29136	13.9375
7.23034	13.9846
7.17033	14.2148
7.11132	14.2229
7.05327	14.4375
6.99616	14.4663
6.93996	14.4826
6.88467	14.6281
6.83024	14.7356
6.77667	15.02
6.72393	15.0073
6.67201	15.2695
6.62089	15.4228
6.57054	15.79
6.52095	15.4929
6.4721	15.624
6.42398	15.5546
6.37657	15.2981
6.32986	15.2548
6.28382	15.226
6.23845	15.2475
6.19373	15.1931
6.14965	15.2055
6.10619	16.4336
6.06334	16.164
6.02109	15.6313
5.97942	15.8462
5.93832	16.0009
5.89778	15.8344
5.8578	15.915
5.81835	16.1125
5.77943	15.8022
5.74103	15.9206
5.70314	15.8669
5.66574	15.8286
5.62883	15.9423
5.5924	15.8601
5.55644	16
5.52093	16.0087
5.48588	15.958
5.45127	15.9961
5.41709	16.2282
5.38334	15.9975
5.35	16.2744
5.31708	15.9987
5.28456	16.0607
5.25243	16.0207
5.2207	15.9997
5.18934	16.0207
5.15836	16.0263
5.12775	16.0283
5.09749	16.0363
5.0676	16.0175
5.03805	16.0048
5.00884	16.0109
4.97998	16.0346
4.95144	16.0546
4.92322	16.0107
4.89533	16.059
4.86775	16.0612
4.84048	16.1137
4.81351	16.1079
4.78684	16.1157
4.76047	16.1464
4.73439	16.1621
4.70859	16.1967
4.68306	16.2036
4.65782	16.2375
4.63284	16.2714
4.60814	16.2961
4.58369	16.3198
4.5595	16.3374
4.53557	16.3559
4.51188	16.3696
4.48845	16.3825
4.46525	16.4206
4.44229	16.4375
4.41957	16.4731
4.39708	16.4848
4.37481	16.5014
4.35277	16.5976
4.33096	16.7399
4.30935	16.9697
4.28797	17.3012
4.26679	17.4404
4.24583	17.5805
4.22506	17.6728
4.2045	16.8537
4.18414	16.5659
4.16398	16.5903
4.14401	16.6084
4.12423	16.6369
4.10464	16.644
4.08523	16.6562
4.066	16.6982
4.04696	16.7094
4.02809	16.726
4.0094	16.7544
3.99088	16.7666
3.97253	16.8125
3.95435	16.8283
3.93634	16.8393
3.91848	16.8388
3.90079	16.8579
3.88326	16.8676
3.86589	16.8669
3.84867	16.8574
3.8316	16.8681
3.81468	16.8662
3.79791	16.8642
3.78129	16.8608
3.76482	16.8496
3.74848	16.8676
3.73229	16.8466
3.71624	16.8515
3.70032	16.8388
3.68454	16.8427
3.6689	16.8457
3.65338	16.8442
3.638	16.8481
3.62275	16.8544
3.60762	16.8388
3.59262	16.8422
3.57775	16.8613
3.56299	16.8667
3.54836	16.8671
3.53385	16.8837
3.51945	16.8674
3.50517	16.8588
3.49101	16.8659
3.47696	16.8686
3.46303	16.8718
3.4492	16.873
3.43549	16.8549
3.42188	16.8742
3.40838	16.841
3.39499	16.8088
3.38171	16.8203
3.36852	16.7985
3.35544	16.7793
3.34246	16.75
3.32958	16.7412
3.3168	16.7475
3.30411	16.7297
3.29153	16.7395
3.27903	16.7263
3.26664	16.7082
3.25433	16.7109
3.24212	16.6967
3.23	16.7561
3.21797	16.7304
3.20603	16.7363
3.19418	16.7246
3.18241	16.7251
3.17074	16.7141
3.15914	16.728
3.14763	16.7651
3.13621	16.7482
3.12487	16.7783
3.11361	16.7912
3.10243	16.7944
3.09133	16.7815
3.0803	16.8574
3.06936	16.8205
3.0585	16.7883
3.04771	16.8222
3.037	16.8271
3.02636	16.8354
3.0158	16.8193
3.00531	16.8515
2.99489	16.8647
2.98454	16.841
2.97427	16.936
2.96407	16.9182
2.95393	16.9804
2.94387	16.9953
2.93387	17.0246
2.92394	17.0991
2.91408	17.1074
2.90429	17.1955
2.89456	17.1259
2.88489	17.0969
2.87529	17.0141
2.86576	17.0214
2.85628	16.8857
2.84687	16.8115
2.83752	16.913
2.82823	16.643
2.81901	16.768
2.80984	16.4257
2.80073	16.5102
2.79168	16.2773
2.78269	16.288
2.77376	16.0991
2.76488	16.1762
2.75606	16.1923
2.7473	15.7168
2.73859	16.5839
2.72994	15.7255
2.72134	16.1543
2.7128	15.916
2.70431	15.9829
2.69587	16.1777
2.68748	16.164
2.67915	16.4336
2.67087	16.4853
2.66264	16.2602
2.65446	16.2558
2.64633	16.1762
2.63825	16.0478
2.63021	16.9687
2.62223	16.1406
2.6143	16.375
2.60641	16.6455
2.59857	16.1054
2.59078	16.2348
2.58304	16.7558
2.57534	16.4848
2.56768	16.3813
2.56008	16.6328
2.55251	16.3501
2.54499	16.2114
2.53752	16.1836
2.53009	16.2412
2.5227	16.2011
2.51536	16.2461
2.50806	16.2021
2.5008	16.1943
2.49358	16.2783
2.4864	16.2348
2.47927	16.2133
2.47218	16.2524
2.46512	16.2714
2.45811	16.2226
2.45114	16.2192
2.4442	16.2387
2.43731	16.2314
2.43045	16.2661
2.42363	16.2519
2.41685	16.3007
2.41011	16.3286
2.40341	16.3476
2.39674	16.3574
2.39011	16.3476
2.38352	16.3051
2.37696	16.3735
2.37044	16.3657
2.36395	16.4633
2.35751	16.4511
2.35109	16.4912
2.34471	16.5322
2.33836	16.5459
2.33205	16.5625
2.32578	16.6191
2.31953	16.6894
2.31332	16.6162
2.30714	16.6425
2.301	16.6191
2.29489	16.625
2.28881	16.665
2.28276	16.6953
2.27675	16.7002
2.27076	16.7519
2.26481	16.7128
2.25889	16.7519
2.253	16.7294
2.24714	16.8164
2.24131	16.7968
2.23551	16.7656
2.22974	16.7793
2.224	16.8525
2.21829	16.7597
2.21261	16.8711
2.20696	16.8496
2.20134	16.8252
2.19574	16.914
2.19018	16.9218
2.18464	17.0234
2.17913	17.0097
2.17365	16.955
2.16819	17.0488
2.16277	17.1132
2.15737	17.0234
2.15199	17.1523
2.14665	17.1298
2.14133	17.1933
2.13603	17.1611
2.13077	17.1777
2.12552	17.1914
2.12031	17.2089
2.11512	17.2109
2.10995	17.2627
2.10481	17.2109
2.0997	17.2929
2.09461	17.3515
2.08954	17.2285
2.0845	17.4033
2.07948	17.33
