Name: Magnetite Fe+2Fe2+3O4
Type: Mineral
Class: Oxides
Subclass: (Spinel Group)
Particle Size: Fine (Less than 2 micrometers)
Sample No.: magnet.1
Owner: JHU
Wavelength Range: IR
Origin: Santa Barbara, Minas Gerais, Brazil via the Smithsonian
Description: The sample was composed of two large (3 cm x 3 cm x 2
Measurement: Transmission
X Units: Wavelength (micrometers)
Y Units: Transmittance (percent)
wavelength	value
25.0442	25.3793
24.3388	25.2648
23.6719	25.4516
23.0407	25.2162
22.4422	25.2778
21.8741	25.2389
21.334	25.3928
20.8199	25.7787
20.33	25.8727
19.8627	25.6884
19.4163	25.0314
18.9896	23.8669
18.5812	21.9106
18.19	18.218
17.815	13.696
17.4551	10.6172
17.1094	10.1396
16.7772	11.0014
16.4576	11.9687
16.15	12.8642
15.8537	13.4658
15.568	14.0744
15.2925	14.7656
15.0265	15.3601
14.7697	15.9211
14.5214	16.2961
14.2814	16.5512
14.0492	16.8774
13.8244	17.2495
13.6067	17.6169
13.3957	17.7268
13.1912	17.8273
12.9929	17.7727
12.8004	17.6342
12.6135	17.4565
12.432	17.2229
12.2557	16.9401
12.0843	16.6262
11.9176	16.3715
11.7555	16.0637
11.5977	15.7768
11.444	15.4743
11.2944	15.1738
11.1487	14.8757
11.0067	14.6381
10.8682	14.3171
10.7332	14.0691
10.6015	13.8369
10.473	13.6025
10.3476	13.3735
10.2251	13.1379
10.1056	12.8786
9.98873	12.6679
9.87458	12.4399
9.763	12.2082
9.65392	11.8811
9.54724	11.5903
9.44291	11.5195
9.34082	11.3679
9.24091	11.2639
9.14312	10.9343
9.04739	10.8879
8.95363	10.7282
8.8618	10.5554
8.77183	10.3808
8.68368	10.1985
8.59727	10.0227
8.51257	9.8327
8.42951	9.6489
8.34807	9.4629
8.26819	9.2893
8.18981	9.0796
8.11292	8.8882
8.03745	8.709
7.96337	8.5251
7.89064	8.3342
7.81924	8.146
7.74911	7.9587
7.68023	7.7832
7.61256	7.6269
7.54608	7.4502
7.48074	7.2947
7.41653	7.1238
7.35341	6.967
7.29136	6.824
7.23034	6.6648
7.17033	6.5207
7.11132	6.3613
7.05327	6.2678
6.99616	6.1299
6.93996	6.011
6.88467	5.884
6.83024	5.7554
6.77667	5.6333
6.72393	5.52
6.67201	5.3923
6.62089	5.2915
6.57054	5.1733
6.52095	5.0618
6.4721	4.9722
6.42398	4.8457
6.37657	4.7361
6.32986	4.6474
6.28382	4.5369
6.23845	4.4531
6.19373	4.3599
6.14965	4.2444
6.10619	4.176
6.06334	4.1291
6.02109	4.0454
5.97942	4.0054
5.93832	3.9602
5.89778	3.9028
5.8578	3.8371
5.81835	3.771
5.77943	3.6897
5.74103	3.6152
5.70314	3.5559
5.66574	3.4968
5.62883	3.4221
5.5924	3.363
5.55644	3.3005
5.52093	3.2349
5.48588	3.1792
5.45127	3.1274
5.41709	3.0776
5.38334	3.0127
5.35	2.968
5.31708	2.9067
5.28456	2.8589
5.25243	2.8054
5.2207	2.7497
5.18934	2.7104
5.15836	2.6709
5.12775	2.6301
5.09749	2.5828
5.0676	2.5425
5.03805	2.4978
5.00884	2.46
4.97998	2.4102
4.95144	2.3782
4.92322	2.3259
4.89533	2.2998
4.86775	2.2664
4.84048	2.2405
4.81351	2.1938
4.78684	2.1628
4.76047	2.1243
4.73439	2.0964
4.70859	2.0554
4.68306	2.0222
4.65782	2.0022
4.63284	1.9539
4.60814	1.9348
4.58369	1.9097
4.5595	1.8918
4.53557	1.8599
4.51188	1.8276
4.48845	1.803
4.46525	1.7678
4.44229	1.7341
4.41957	1.7119
4.39708	1.699
4.37481	1.6626
4.35277	1.6326
4.33096	1.6077
4.30935	1.5845
4.28797	1.5706
4.26679	1.5496
4.24583	1.5264
4.22506	1.501
4.2045	1.4851
4.18414	1.4736
4.16398	1.4468
4.14401	1.4446
4.12423	1.4177
4.10464	1.3931
4.08523	1.3716
4.066	1.3442
4.04696	1.3215
4.02809	1.3179
4.0094	1.2854
3.99088	1.2795
3.97253	1.2666
3.95435	1.2322
3.93634	1.228
3.91848	1.2229
3.90079	1.1985
3.88326	1.1765
3.86589	1.1704
3.84867	1.155
3.8316	1.1465
3.81468	1.1438
3.79791	1.124
3.78129	1.0933
3.76482	1.0991
3.74848	1.0735
3.73229	1.0632
3.71624	1.0496
3.70032	1.0383
3.68454	1.0112
3.6689	1.0073
3.65338	0.9993
3.638	0.9866
3.62275	0.9805
3.60762	0.9482
3.59262	0.9465
3.57775	0.9329
3.56299	0.9268
3.54836	0.896
3.53385	0.9043
3.51945	0.8916
3.50517	0.8843
3.49101	0.8674
3.47696	0.8657
3.46303	0.8394
3.4492	0.8381
3.43549	0.8354
3.42188	0.8147
3.40838	0.7974
3.39499	0.7981
3.38171	0.7878
3.36852	0.793
3.35544	0.7729
3.34246	0.7664
3.32958	0.7771
3.3168	0.7534
3.30411	0.7383
3.29153	0.7446
3.27903	0.7229
3.26664	0.7217
3.25433	0.7085
3.24212	0.7126
3.23	0.6875
3.21797	0.6873
3.20603	0.6763
3.19418	0.6748
3.18241	0.6719
3.17074	0.6348
3.15914	0.657
3.14763	0.6494
3.13621	0.6467
3.12487	0.6301
3.11361	0.6094
3.10243	0.6133
3.09133	0.5933
3.0803	0.6089
3.06936	0.6106
3.0585	0.5962
3.04771	0.5869
3.037	0.5774
3.02636	0.5879
3.0158	0.5774
3.00531	0.5535
2.99489	0.5674
2.98454	0.5474
2.97427	0.5771
2.96407	0.562
2.95393	0.5259
2.94387	0.5281
2.93387	0.5298
2.92394	0.52
2.91408	0.5232
2.90429	0.5364
2.89456	0.5144
2.88489	0.5078
2.87529	0.5266
2.86576	0.5315
2.85628	0.5139
2.84687	0.5334
2.83752	0.5046
2.82823	0.4834
2.81901	0.501
2.80984	0.5041
2.80073	0.5034
2.79168	0.5027
2.78269	0.5051
2.77376	0.4922
2.76488	0.4814
2.75606	0.47
2.7473	0.4739
2.73859	0.4783
2.72994	0.4697
2.72134	0.4832
2.7128	0.4558
2.70431	0.4585
2.69587	0.4585
2.68748	0.4504
2.67915	0.4585
2.67087	0.4636
2.66264	0.4597
2.65446	0.4233
2.64633	0.4321
2.63825	0.4597
2.63021	0.4272
2.62223	0.4094
2.6143	0.4382
2.60641	0.4277
2.59857	0.4104
2.59078	0.4487
2.58304	0.4233
2.57534	0.4336
2.56768	0.4182
2.56008	0.4216
2.55251	0.3835
2.54499	0.3921
2.53752	0.4128
2.53009	0.4126
2.5227	0.4016
2.51536	0.4028
2.50806	0.3931
2.5008	0.4082
2.49358	0.3953
2.4864	0.3928
2.47927	0.3999
2.47218	0.3772
2.46512	0.3809
2.45811	0.3455
2.45114	0.3428
2.4442	0.3582
2.43731	0.4175
2.43045	0.3599
2.42363	0.3706
2.41685	0.3472
2.41011	0.343
2.40341	0.3435
2.39674	0.3657
2.39011	0.365
2.38352	0.3779
2.37696	0.3423
2.37044	0.3672
2.36395	0.3491
2.35751	0.3254
2.35109	0.3691
2.34471	0.3467
2.33836	0.3486
2.33205	0.3196
2.32578	0.342
2.31953	0.3318
2.31332	0.3765
2.30714	0.3437
2.301	0.3301
2.29489	0.312
2.28881	0.3208
2.28276	0.3303
2.27675	0.3252
2.27076	0.3433
2.26481	0.3257
2.25889	0.2915
2.253	0.2705
2.24714	0.3242
2.24131	0.3213
2.23551	0.3169
2.22974	0.3081
2.224	0.2998
2.21829	0.3271
2.21261	0.3213
2.20696	0.2539
2.20134	0.2842
2.19574	0.2871
2.19018	0.3057
2.18464	0.2852
2.17913	0.2593
2.17365	0.3135
2.16819	0.29
2.16277	0.3003
2.15737	0.2954
2.15199	0.2412
2.14665	0.2983
2.14133	0.3157
2.13603	0.2896
2.13077	0.2822
2.12552	0.2617
2.12031	0.2708
2.11512	0.2568
2.10995	0.3333
2.10481	0.2932
2.0997	0.2651
2.09461	0.3296
2.08954	0.2554
2.0845	0.2734
2.07948	0.2412
