Name: Beryl Be3Al2Si6O18
Type: Mineral
Class: Silicates
Subclass: Cyclosilicates (Ring Silicates)
Particle Size: Fine (Less than 2 Micrometers)
Sample No.: beryl.1
Owner: JHU
Wavelength Range: IR
Origin: Sample from Maine via Hunt and Salisbury Collection sample
Description: The hand sample was cut and polished along an
Measurement: Transmission
X Units: Wavelength (micrometers)
Y Units: Transmittance (percent)
wavelength	value
25.0442	86.5154
24.3388	82.4724
23.6719	75.2576
23.0407	53.8299
22.4422	53.953
21.8741	65.533
21.334	73.1483
20.8199	70.5819
20.33	51.4491
19.8627	65.9198
19.4163	54.3788
18.9896	46.8046
18.5812	53.6649
18.19	64.5662
17.815	76.5154
17.4551	76.3396
17.1094	64.494
16.7772	51.0057
16.4576	66.45
16.15	69.5194
15.8537	71.7996
15.568	67.9393
15.2925	60.1424
15.0265	61.0418
14.7697	45.6532
14.5214	47.8954
14.2814	62.0565
14.0492	66.8944
13.8244	65.0682
13.6067	57.8558
13.3957	56.1737
13.1912	65.3363
12.9929	71.346
12.8004	71.0721
12.6135	66.0096
12.432	56.0487
12.2557	57.4222
12.0843	67.1156
11.9176	75.1409
11.7555	79.4007
11.5977	80.908
11.444	79.3641
11.2944	77.1839
11.1487	72.7952
11.0067	65.6649
10.8682	56.6996
10.7332	47.3578
10.6015	39.8202
10.473	34.893
10.3476	36.1469
10.2251	43.5961
10.1056	49.3983
9.98873	55.3592
9.87458	55.2899
9.763	55.3143
9.65392	63.0379
9.54724	70.4769
9.44291	74.4568
9.34082	77.7151
9.24091	79.907
9.14312	81.1878
9.04739	81.739
8.95363	81.8025
8.8618	80.5555
8.77183	77.3094
8.68368	72.9315
8.59727	70.2298
8.51257	61.3436
8.42951	52.6547
8.34807	41.5643
8.26819	41.84
8.18981	46.8807
8.11292	51.8146
8.03745	59.4735
7.96337	67.5272
7.89064	73.9134
7.81924	78.8829
7.74911	82.5721
7.68023	84.5196
7.61256	85.6795
7.54608	86.6709
7.48074	87.3894
7.41653	88.0078
7.35341	88.469
7.29136	88.6778
7.23034	88.8128
7.17033	88.6101
7.11132	88.5117
7.05327	88.4207
6.99616	88.6702
6.93996	89.1699
6.88467	89.6758
6.83024	90.2449
6.77667	90.7688
6.72393	91.4343
6.67201	91.7988
6.62089	92.1033
6.57054	92.3106
6.52095	92.7783
6.4721	92.405
6.42398	92.7644
6.37657	93.1716
6.32986	93.2022
6.28382	93.0847
6.23845	92.4587
6.19373	92.0918
6.14965	90.8203
6.10619	90.6289
6.06334	91.7178
6.02109	92.6201
5.97942	93.4434
5.93832	93.6921
5.89778	94.0398
5.8578	94.4216
5.81835	94.4482
5.77943	94.6875
5.74103	94.8796
5.70314	95.0671
5.66574	95.1816
5.62883	95.2168
5.5924	95.2615
5.55644	95.2625
5.52093	95.3838
5.48588	95.4294
5.45127	95.6375
5.41709	95.6377
5.38334	95.6865
5.35	95.7283
5.31708	95.8601
5.28456	95.8142
5.25243	95.7959
5.2207	95.7058
5.18934	95.5564
5.15836	95.5791
5.12775	95.6016
5.09749	95.6443
5.0676	95.781
5.03805	95.8728
5.00884	95.9182
4.97998	96.0178
4.95144	96.1321
4.92322	96.1374
4.89533	96.1565
4.86775	96.2898
4.84048	96.3054
4.81351	96.3474
4.78684	96.3704
4.76047	96.4294
4.73439	96.5256
4.70859	96.5066
4.68306	96.5974
4.65782	96.6033
4.63284	96.6277
4.60814	96.6213
4.58369	96.7668
4.5595	96.7996
4.53557	96.7546
4.51188	96.8279
4.48845	96.8479
4.46525	96.8025
4.44229	96.8503
4.41957	96.9236
4.39708	96.9421
4.37481	97.0569
4.35277	96.9778
4.33096	97.0339
4.30935	97.074
4.28797	97.0662
4.26679	97.0007
4.24583	96.8831
4.22506	97.0002
4.2045	97.1228
4.18414	97.2063
4.16398	97.2712
4.14401	97.301
4.12423	97.2561
4.10464	97.3518
4.08523	97.3088
4.066	97.3108
4.04696	97.3791
4.02809	97.2849
4.0094	97.2664
3.99088	97.239
3.97253	97.2737
3.95435	97.2815
3.93634	97.2873
3.91848	97.3738
3.90079	97.4104
3.88326	97.3171
3.86589	97.3074
3.84867	97.4158
3.8316	97.3479
3.81468	97.3498
3.79791	97.3552
3.78129	97.3835
3.76482	97.3728
3.74848	97.3962
3.73229	97.3191
3.71624	97.3396
3.70032	97.3674
3.68454	97.3464
3.6689	97.3044
3.65338	97.3748
3.638	97.3464
3.62275	97.3455
3.60762	97.2561
3.59262	97.3523
3.57775	97.2795
3.56299	97.3518
3.54836	97.1882
3.53385	97.2732
3.51945	97.2439
3.50517	97.3181
3.49101	97.1892
3.47696	97.0564
3.46303	96.9163
3.4492	97.0759
3.43549	97.0662
3.42188	97.4001
3.40838	97.2327
3.39499	97.1111
3.38171	97.0178
3.36852	97.0666
3.35544	97.0061
3.34246	96.9768
3.32958	97.0134
3.3168	97.0271
3.30411	96.9514
3.29153	96.9163
3.27903	96.9475
3.26664	96.8835
3.25433	96.7556
3.24212	96.6003
3.23	96.5281
3.21797	96.4812
3.20603	96.3621
3.19418	96.2332
3.18241	96.1414
3.17074	96.0623
3.15914	95.8708
3.14763	95.5857
3.13621	95.6091
3.12487	95.364
3.11361	95.1716
3.10243	94.8777
3.09133	94.6003
3.0803	94.3142
3.06936	94.1209
3.0585	93.7244
3.04771	93.7263
3.037	93.3416
3.02636	93.238
3.0158	92.7937
3.00531	92.4265
2.99489	91.7439
2.98454	91.2713
2.97427	90.5711
2.96407	89.8406
2.95393	89.1834
2.94387	88.4929
2.93387	88.1834
2.92394	87.7342
2.91408	87.6336
2.90429	87.8406
2.89456	88.0974
2.88489	88.3611
2.87529	88.6414
2.86576	89.1062
2.85628	89.5007
2.84687	90.0047
2.83752	90.6297
2.82823	91.2156
2.81901	92.0086
2.80984	92.6462
2.80073	93.156
2.79168	93.8396
2.78269	93.6335
2.77376	94.6619
2.76488	95.7078
2.75606	96.0251
2.7473	96.5867
2.73859	96.5154
2.72994	96.8005
2.72134	96.7322
2.7128	96.949
2.70431	94.9578
2.69587	97.0115
2.68748	97.7429
2.67915	97.7693
2.67087	97.8328
2.66264	98.0662
2.65446	97.9187
2.64633	98.0437
2.63825	98.1521
2.63021	97.9197
2.62223	98.156
2.6143	98.1892
2.60641	97.99
2.59857	98.1072
2.59078	98.2537
2.58304	98.115
2.57534	98.031
2.56768	98.0974
2.56008	98.2361
2.55251	98.0564
2.54499	98.2263
2.53752	98.408
2.53009	98.199
2.5227	98.1111
2.51536	98.3689
2.50806	98.3435
2.5008	98.3513
2.49358	98.3044
2.4864	98.5271
2.47927	98.3298
2.47218	98.2751
2.46512	98.5154
2.45811	98.5642
2.45114	98.5701
2.4442	98.3142
2.43731	98.783
2.43045	98.5779
2.42363	98.3044
2.41685	98.6736
2.41011	98.7986
2.40341	98.5193
2.39674	98.572
2.39011	98.4626
2.38352	98.7361
2.37696	98.7751
2.37044	98.697
2.36395	98.6052
2.35751	98.4548
2.35109	98.6326
2.34471	98.5076
2.33836	98.6326
2.33205	98.6423
2.32578	98.5466
2.31953	98.5642
2.31332	98.8396
2.30714	98.6247
2.301	98.5857
2.29489	98.8455
2.28881	98.7732
2.28276	98.783
2.27675	98.8279
2.27076	98.4021
2.26481	98.906
2.25889	98.7849
2.253	98.5935
2.24714	98.6521
2.24131	98.5662
2.23551	98.738
2.22974	98.7029
2.224	98.6951
2.21829	98.6443
2.21261	98.8435
2.20696	98.6872
2.20134	99.1443
2.19574	98.8474
2.19018	98.7068
2.18464	98.7732
2.17913	98.6716
2.17365	98.8747
2.16819	98.9138
2.16277	98.863
2.15737	98.5037
2.15199	98.8122
2.14665	98.7497
2.14133	98.6521
2.13603	98.5779
2.13077	98.5232
2.12552	98.5622
2.12031	98.656
2.11512	98.9412
2.10995	98.8122
2.10481	98.4919
2.0997	98.6755
2.09461	98.7185
2.08954	98.8318
2.0845	98.9099
2.07948	98.5076
