Name: Hypersthene (Mg,Fe+2)2Si2O6
Type: Mineral
Class: Silicates
Subclass: Inosilicates (Pyroxene Group)
Particle Size: Fine  (0-74 micrometers)
Sample No.: hypersth.1
Owner: JHU
Wavelength Range: IR
Origin: Western Greenland, via the Smithsonian (sample no. NMNH
Description: Black in color; a small amount of surface contamination
Measurement: Bidirectional reflectance
X Units: Wavelength (micrometers)
Y Units: Reflectance (percent)
wavelength	value
25.0442	2.3008
24.3388	2.4319
23.6719	2.6106
23.0407	2.7065
22.4422	2.876
21.8741	2.8032
21.334	2.6257
20.8199	2.7578
20.33	3.1247
19.8627	3.2395
19.4163	3.2685
18.9896	2.8176
18.5812	2.8476
18.19	2.7956
17.815	2.6145
17.4551	2.8838
17.1094	2.6863
16.7772	2.4517
16.4576	2.1284
16.15	1.5964
15.8537	1.3853
15.568	1.3748
15.2925	1.3083
15.0265	1.3503
14.7697	1.4795
14.5214	1.614
14.2814	1.6699
14.0492	1.7654
13.8244	1.7107
13.6067	1.886
13.3957	1.9004
13.1912	1.8555
12.9929	2.2051
12.8004	2.7556
12.6135	2.9531
12.432	2.9021
12.2557	2.6428
12.0843	2.2146
11.9176	1.9734
11.7555	1.8555
11.5977	1.9582
11.444	1.9665
11.2944	1.8437
11.1487	1.6106
11.0067	1.6457
10.8682	1.738
10.7332	1.8193
10.6015	1.9089
10.473	2.0442
10.3476	2.0286
10.2251	2.0613
10.1056	1.8748
9.98873	1.7158
9.87458	1.6155
9.763	1.7761
9.65392	1.9634
9.54724	2.1504
9.44291	2.3528
9.34082	2.4136
9.24091	2.3892
9.14312	2.4072
9.04739	2.4868
8.95363	2.6477
8.8618	2.8684
8.77183	3.1416
8.68368	2.7395
8.59727	1.6623
8.51257	1.115
8.42951	1.2112
8.34807	1.6179
8.26819	2.1462
8.18981	2.7339
8.11292	3.3291
8.03745	3.8674
7.96337	4.3371
7.89064	4.7541
7.81924	5.1382
7.74911	5.5098
7.68023	5.8486
7.61256	6.1218
7.54608	6.3703
7.48074	6.6072
7.41653	6.8225
7.35341	7.0285
7.29136	7.2451
7.23034	7.354
7.17033	7.4082
7.11132	7.4494
7.05327	7.4895
6.99616	7.542
6.93996	7.6225
6.88467	7.7109
6.83024	7.8271
6.77667	7.9599
6.72393	8.0451
6.67201	8.0801
6.62089	8.1304
6.57054	8.2668
6.52095	8.3523
6.4721	8.3088
6.42398	8.185
6.37657	7.9695
6.32986	7.7107
6.28382	7.582
6.23845	7.5451
6.19373	7.5014
6.14965	7.529
6.10619	7.5796
6.06334	7.6037
6.02109	7.7004
5.97942	7.9634
5.93832	8.3779
5.89778	8.7712
5.8578	8.9326
5.81835	8.9492
5.77943	8.9651
5.74103	9.0342
5.70314	9.0906
5.66574	9.1008
5.62883	9.1352
5.5924	9.2209
5.55644	9.3816
5.52093	9.5449
5.48588	9.5805
5.45127	9.5952
5.41709	9.6675
5.38334	9.7802
5.35	9.8489
5.31708	9.8135
5.28456	9.636
5.25243	9.4111
5.2207	9.2051
5.18934	9.042
5.15836	8.9963
5.12775	9.134
5.09749	9.3559
5.0676	9.5971
5.03805	9.8069
5.00884	9.9404
4.97998	10.0141
4.95144	10.0871
4.92322	10.1784
4.89533	10.2588
4.86775	10.3286
4.84048	10.4304
4.81351	10.592
4.78684	10.7734
4.76047	10.9426
4.73439	11.0532
4.70859	11.1633
4.68306	11.3139
4.65782	11.5058
4.63284	11.695
4.60814	11.8598
4.58369	11.9865
4.5595	12.0576
4.53557	12.1179
4.51188	12.1487
4.48845	12.1853
4.46525	12.2002
4.44229	12.2063
4.41957	12.2319
4.39708	12.247
4.37481	12.2719
4.35277	12.278
4.33096	12.2876
4.30935	12.3195
4.28797	12.3171
4.26679	12.3362
4.24583	12.3642
4.22506	12.3864
4.2045	12.4055
4.18414	12.4365
4.16398	12.4416
4.14401	12.4394
4.12423	12.4438
4.10464	12.4648
4.08523	12.479
4.066	12.5092
4.04696	12.507
4.02809	12.5339
4.0094	12.5207
3.99088	12.5197
3.97253	12.5161
3.95435	12.5495
3.93634	12.5832
3.91848	12.5908
3.90079	12.6006
3.88326	12.6028
3.86589	12.6135
3.84867	12.6128
3.8316	12.6071
3.81468	12.6064
3.79791	12.6123
3.78129	12.6052
3.76482	12.5976
3.74848	12.5888
3.73229	12.5905
3.71624	12.5754
3.70032	12.5678
3.68454	12.5483
3.6689	12.5337
3.65338	12.518
3.638	12.5002
3.62275	12.4812
3.60762	12.4685
3.59262	12.4499
3.57775	12.4392
3.56299	12.4084
3.54836	12.3613
3.53385	12.3139
3.51945	12.2461
3.50517	12.0854
3.49101	12.1008
3.47696	12.0969
3.46303	12.0925
3.4492	12.0302
3.43549	11.9472
3.42188	11.781
3.40838	11.758
3.39499	11.8178
3.38171	11.8149
3.36852	11.8105
3.35544	11.7741
3.34246	11.82
3.32958	11.8447
3.3168	11.7946
3.30411	11.7668
3.29153	11.73
3.27903	11.664
3.26664	11.6394
3.25433	11.5737
3.24212	11.5141
3.23	11.4738
3.21797	11.3987
3.20603	11.3354
3.19418	11.2509
3.18241	11.1804
3.17074	11.0996
3.15914	11.018
3.14763	10.9353
3.13621	10.8239
3.12487	10.7414
3.11361	10.6704
3.10243	10.5688
3.09133	10.4958
3.0803	10.4861
3.06936	10.4592
3.0585	10.4316
3.04771	10.4297
3.037	10.3691
3.02636	10.302
3.0158	10.1894
3.00531	10.1145
2.99489	10.0246
2.98454	9.9453
2.97427	9.8364
2.96407	9.7224
2.95393	9.5766
2.94387	9.4433
2.93387	9.3686
2.92394	9.3686
2.91408	9.386
2.90429	9.4084
2.89456	9.4148
2.88489	9.373
2.87529	9.3244
2.86576	9.2898
2.85628	9.2978
2.84687	9.2785
2.83752	9.2412
2.82823	9.1911
2.81901	9.1194
2.80984	9.0564
2.80073	9.0498
2.79168	9.0759
2.78269	9.1286
2.77376	9.2485
2.76488	9.3825
2.75606	9.5769
2.7473	9.7629
2.73859	10.051
2.72994	9.7177
2.72134	10.02
2.7128	12.0285
2.70431	12.8213
2.69587	13.2465
2.68748	13.4604
2.67915	13.573
2.67087	13.6506
2.66264	13.6963
2.65446	13.7031
2.64633	13.7314
2.63825	13.7207
2.63021	13.7256
2.62223	13.7273
2.6143	13.7241
2.60641	13.7124
2.59857	13.7224
2.59078	13.7363
2.58304	13.7512
2.57534	13.7382
2.56768	13.7382
2.56008	13.7314
2.55251	13.7131
2.54499	13.7094
2.53752	13.7038
2.53009	13.6767
2.5227	13.6452
2.51536	13.645
2.50806	13.622
2.5008	13.6577
2.49358	13.6235
2.4864	13.5937
2.47927	13.5932
2.47218	13.5952
2.46512	13.4978
2.45811	13.5061
2.45114	13.5044
2.4442	13.457
2.43731	13.4604
2.43045	13.4502
2.42363	13.4255
2.41685	13.4165
2.41011	13.4321
2.40341	13.3855
2.39674	13.332
2.39011	13.2846
2.38352	13.2837
2.37696	13.2651
2.37044	13.2492
2.36395	13.2295
2.35751	13.167
2.35109	13.1679
2.34471	13.1425
2.33836	13.0703
2.33205	13.0337
2.32578	12.9716
2.31953	12.9048
2.31332	12.8611
2.30714	12.8562
2.301	12.8574
2.29489	12.8515
2.28881	12.7861
2.28276	12.7758
2.27675	12.7683
2.27076	12.7522
2.26481	12.665
2.25889	12.6484
2.253	12.5749
2.24714	12.5337
2.24131	12.4907
2.23551	12.4848
2.22974	12.4277
2.224	12.4013
2.21829	12.394
2.21261	12.3217
2.20696	12.2456
2.20134	12.2375
2.19574	12.1538
2.19018	12.1779
2.18464	12.1025
2.17913	12.0271
2.17365	12.0185
2.16819	11.959
2.16277	11.9426
2.15737	11.8642
2.15199	11.7876
2.14665	11.7168
2.14133	11.686
2.13603	11.6838
2.13077	11.5366
2.12552	11.5385
2.12031	11.521
2.11512	11.4087
2.10995	11.3576
2.10481	11.3325
2.0997	11.2295
2.09461	11.2412
2.08954	11.1928
2.0845	11.1311
2.07948	11.0459
