Name: Olivine (Fo92) (Fe+2,Mg)2SiO4
Type: Mineral
Class: Silicates
Subclass: Nesosilicates (Isolated tetrahedra); (Olivine Group)
Particle Size: Fine  (Less than 2  Micrometers)
Sample No.: olivine.12
Owner: JHU
Wavelength Range: IR
Origin: Ward's Natural Science Establishment.
Description: The hand sample consisted of small, translucent green
Measurement: Transmission
X Units: Wavelength (micrometers)
Y Units: Transmittance (percent)
wavelength	value
25.0442	32.7187
24.3388	18.9843
23.6719	11.4531
23.0407	19.8828
22.4422	33.0546
21.8741	37.9999
21.334	40.1991
20.8199	45.621
20.33	40.9862
19.8627	20.0703
19.4163	18.6728
18.9896	20.7587
18.5812	25.4462
18.19	34.6874
17.815	54.4881
17.4551	66.369
17.1094	69.4158
16.7772	55.1073
16.4576	37.4501
16.15	44.5897
15.8537	61.2948
15.568	72.0477
15.2925	76.8396
15.0265	80.0535
14.7697	82.2713
14.5214	83.365
14.2814	84.1531
14.0492	84.447
13.8244	85.053
13.6067	85.2346
13.3957	85.219
13.1912	84.8279
12.9929	84.1443
12.8004	82.8572
12.6135	80.8006
12.432	77.5159
12.2557	72.3851
12.0843	61.5975
11.9176	41.1835
11.7555	47.9471
11.5977	34.1044
11.444	15.2636
11.2944	4.7012
11.1487	5.1191
11.0067	8.1782
10.8682	11.6513
10.7332	19.999
10.6015	28.7988
10.473	23.7328
10.3476	34.5922
10.2251	17.9985
10.1056	13.1123
9.98873	13.9599
9.87458	22.0024
9.763	34.3105
9.65392	45.2958
9.54724	53.265
9.44291	58.8734
9.34082	63.2635
9.24091	66.4715
9.14312	69.1033
9.04739	71.6795
8.95363	74.1678
8.8618	76.2073
8.77183	77.8743
8.68368	79.6756
8.59727	80.889
8.51257	83.0432
8.42951	85.0799
8.34807	86.8799
8.26819	88.4297
8.18981	89.5652
8.11292	90.3789
8.03745	90.9939
7.96337	91.4251
7.89064	91.8792
7.81924	92.1934
7.74911	92.3535
7.68023	92.4182
7.61256	92.5518
7.54608	92.6941
7.48074	92.8562
7.41653	93.0029
7.35341	92.9395
7.29136	93.0078
7.23034	93.1143
7.17033	93.0042
7.11132	92.7422
7.05327	92.4983
6.99616	92.4714
6.93996	92.6892
6.88467	92.8845
6.83024	92.9275
6.77667	93.1602
6.72393	93.5215
6.67201	93.8367
6.62089	93.9138
6.57054	94.0889
6.52095	93.9763
6.4721	93.9463
6.42398	93.8865
6.37657	93.6423
6.32986	93.3086
6.28382	93.0544
6.23845	92.9675
6.19373	92.9636
6.14965	92.3699
6.10619	92.4382
6.06334	92.4031
6.02109	92.0867
5.97942	92.6279
5.93832	93.3994
5.89778	93.9922
5.8578	94.3594
5.81835	94.719
5.77943	94.8389
5.74103	95.0056
5.70314	94.9053
5.66574	94.6741
5.62883	94.5339
5.5924	94.6631
5.55644	94.9001
5.52093	95.0906
5.48588	95.0554
5.45127	95.0662
5.41709	95.1423
5.38334	95.2253
5.35	95.2791
5.31708	95.3298
5.28456	95.4236
5.25243	95.4773
5.2207	95.3789
5.18934	95.5361
5.15836	95.5574
5.12775	95.6611
5.09749	95.6855
5.0676	95.6504
5.03805	95.7207
5.00884	95.7439
4.97998	95.6609
4.95144	95.6199
4.92322	95.7273
4.89533	95.7512
4.86775	95.8044
4.84048	95.7888
4.81351	95.9148
4.78684	95.8596
4.76047	95.7634
4.73439	95.7869
4.70859	95.6877
4.68306	95.7151
4.65782	95.6707
4.63284	95.7268
4.60814	95.6951
4.58369	95.6804
4.5595	95.6506
4.53557	95.6423
4.51188	95.5515
4.48845	95.5417
4.46525	95.533
4.44229	95.5115
4.41957	95.5037
4.39708	95.4377
4.37481	95.4314
4.35277	95.366
4.33096	95.4319
4.30935	95.3274
4.28797	95.3118
4.26679	95.301
4.24583	95.301
4.22506	95.2312
4.2045	95.2019
4.18414	95.1804
4.16398	95.1584
4.14401	95.1838
4.12423	95.1292
4.10464	95.0652
4.08523	95.0686
4.066	95.1292
4.04696	95.0378
4.02809	95.0388
4.0094	94.9963
3.99088	94.9109
3.97253	94.8494
3.95435	94.8621
3.93634	94.8621
3.91848	94.8674
3.90079	94.8376
3.88326	94.8303
3.86589	94.7229
3.84867	94.6111
3.8316	94.5418
3.81468	94.5994
3.79791	94.5125
3.78129	94.4924
3.76482	94.3298
3.74848	94.3035
3.73229	94.2527
3.71624	94.1951
3.70032	94.0256
3.68454	93.9265
3.6689	93.8792
3.65338	93.8787
3.638	93.7654
3.62275	93.5237
3.60762	93.4548
3.59262	93.4509
3.57775	93.3884
3.56299	93.3367
3.54836	93.2127
3.53385	93.0764
3.51945	92.8572
3.50517	92.5701
3.49101	92.5159
3.47696	92.4104
3.46303	92.3084
3.4492	92.2952
3.43549	91.926
3.42188	91.6658
3.40838	91.471
3.39499	91.6038
3.38171	91.637
3.36852	91.7712
3.35544	91.5413
3.34246	91.5842
3.32958	91.3611
3.3168	91.3406
3.30411	91.0994
3.29153	91.1238
3.27903	90.9021
3.26664	90.742
3.25433	90.6233
3.24212	90.4607
3.23	90.2815
3.21797	90.0452
3.20603	89.9295
3.19418	89.6819
3.18241	89.574
3.17074	89.3552
3.15914	89.2185
3.14763	88.8806
3.13621	88.657
3.12487	88.5183
3.11361	88.4461
3.10243	88.1209
3.09133	88.0076
3.0803	87.865
3.06936	87.7263
3.0585	87.5447
3.04771	87.406
3.037	87.0955
3.02636	86.992
3.0158	86.9392
3.00531	86.8025
2.99489	86.8318
2.98454	86.9881
2.97427	87.0994
2.96407	87.4705
2.95393	87.6843
2.94387	87.947
2.93387	88.0095
2.92394	87.9978
2.91408	88.1736
2.90429	88.158
2.89456	88.1287
2.88489	87.8709
2.87529	87.5779
2.86576	87.4383
2.85628	87.49
2.84687	87.5974
2.83752	87.8133
2.82823	87.8826
2.81901	88.0359
2.80984	88.3103
2.80073	88.1716
2.79168	88.4226
2.78269	88.4265
2.77376	88.6648
2.76488	88.8201
2.75606	89.2634
2.7473	89.5711
2.73859	89.6804
2.72994	90.4695
2.72134	90.7742
2.7128	90.992
2.70431	91.3054
2.69587	91.4568
2.68748	91.6726
2.67915	91.5945
2.67087	91.699
2.66264	91.4187
2.65446	91.4461
2.64633	91.2693
2.63825	91.367
2.63021	91.2039
2.62223	91.0867
2.6143	90.906
2.60641	90.9998
2.59857	91.0662
2.59078	90.9724
2.58304	91.1414
2.57534	90.7937
2.56768	90.4998
2.56008	90.6873
2.55251	90.4646
2.54499	90.5232
2.53752	90.4627
2.53009	90.2986
2.5227	90.0798
2.51536	90.0017
2.50806	90.2146
2.5008	90.0427
2.49358	89.9763
2.4864	90.197
2.47927	89.8084
2.47218	89.7908
2.46512	89.5252
2.45811	89.7185
2.45114	89.8181
2.4442	89.6287
2.43731	89.5623
2.43045	89.3513
2.42363	89.408
2.41685	89.1736
2.41011	89.3689
2.40341	89.3513
2.39674	89.2986
2.39011	89.3318
2.38352	89.0174
2.37696	88.949
2.37044	88.992
2.36395	88.8006
2.35751	88.8924
2.35109	88.7615
2.34471	88.8845
2.33836	88.7439
2.33205	88.4881
2.32578	88.367
2.31953	88.5955
2.31332	88.7888
2.30714	88.3748
2.301	88.5701
2.29489	88.4138
2.28881	88.2517
2.28276	88.4002
2.27675	88.3591
2.27076	88.3162
2.26481	88.3357
2.25889	88.3357
2.253	88.3318
2.24714	88.3552
2.24131	88.3455
2.23551	87.8611
2.22974	88.4216
2.224	87.8357
2.21829	88.0935
2.21261	88.2576
2.20696	88.0799
2.20134	87.908
2.19574	87.9392
2.19018	87.9158
2.18464	88.2576
2.17913	87.656
2.17365	88.2595
2.16819	88.1091
2.16277	88.2263
2.15737	88.3513
2.15199	87.8592
2.14665	87.5154
2.14133	87.7967
2.13603	87.5193
2.13077	88.2771
2.12552	87.9216
2.12031	88.0779
2.11512	87.6521
2.10995	88.0076
2.10481	87.7381
2.0997	88.117
2.09461	87.6873
2.08954	87.7263
2.0845	87.9373
2.07948	87.7967
