Name: Datolite CaBSiO4(OH)
Type: Mineral
Class: Silicates
Subclass: Nesosilicates (Ring Silicates) (Humite Group)
Particle Size: Solid (polished surface)
Sample No.: datolite.1
Owner: JHU
Wavelength Range: IR
Origin: Hunt and Salisbury Collection #442B;  Sample from
Description: White particulate samples appear to be pure datolite,
Measurement: Bidirectional reflectance
X Units: Wavelength (micrometers)
Y Units: Reflectance (percent)
wavelength	value
25.0442	10.5923
24.3388	12.1467
23.6719	13.0163
23.0407	14.1052
22.4422	15.5813
21.8741	17.5952
21.334	22.0942
20.8199	28.4958
20.33	34.5302
19.8627	36.5819
19.4163	36.1557
18.9896	33.6969
18.5812	20.9426
18.19	8.6838
17.815	6.4258
17.4551	8.4077
17.1094	9.0725
16.7772	8.7055
16.4576	9.6911
16.15	10.3528
15.8537	11.0866
15.568	11.8874
15.2925	12.6345
15.0265	13.4907
14.7697	15.2607
14.5214	16.8625
14.2814	12.101
14.0492	12.4685
13.8244	13.6845
13.6067	14.7124
13.3957	15.7922
13.1912	17.2441
12.9929	19.892
12.8004	26.6108
12.6135	16.8586
12.432	12.1924
12.2557	15.3376
12.0843	17.6162
11.9176	21.0449
11.7555	24.6337
11.5977	14.7048
11.444	17.9397
11.2944	21.2502
11.1487	23.9604
11.0067	29.6376
10.8682	31.7663
10.7332	29.0922
10.6015	38.2082
10.473	33.1364
10.3476	26.4914
10.2251	38.6947
10.1056	44.5756
9.98873	48.3302
9.87458	49.2675
9.763	29.6662
9.65392	29.9772
9.54724	40.0748
9.44291	46.5048
9.34082	45.6459
9.24091	40.7577
9.14312	39.0832
9.04739	41.6193
8.95363	49.7335
8.8618	57.141
8.77183	55.0636
8.68368	44.8619
8.59727	41.4767
8.51257	36.1669
8.42951	31.9777
8.34807	28.4565
8.26819	20.8952
8.18981	13.5598
8.11292	7.959
8.03745	4.199
7.96337	1.7134
7.89064	0.9717
7.81924	1.2231
7.74911	1.6296
7.68023	2.0398
7.61256	2.4521
7.54608	2.8374
7.48074	3.1592
7.41653	3.4426
7.35341	3.7085
7.29136	3.9514
7.23034	4.1745
7.17033	4.3901
7.11132	4.5998
7.05327	4.7859
6.99616	4.9604
6.93996	5.1113
6.88467	5.2593
6.83024	5.4026
6.77667	5.5215
6.72393	5.6338
6.67201	5.7366
6.62089	5.8457
6.57054	5.979
6.52095	6.1157
6.4721	6.187
6.42398	6.2351
6.37657	6.3408
6.32986	6.4458
6.28382	6.5415
6.23845	6.626
6.19373	6.6936
6.14965	6.7593
6.10619	6.8108
6.06334	6.8518
6.02109	6.9075
5.97942	6.9407
5.93832	6.9765
5.89778	7.022
5.8578	7.084
5.81835	7.1301
5.77943	7.1929
5.74103	7.2588
5.70314	7.3105
5.66574	7.3584
5.62883	7.4118
5.5924	7.4582
5.55644	7.4968
5.52093	7.531
5.48588	7.5652
5.45127	7.5998
5.41709	7.6345
5.38334	7.6675
5.35	7.6931
5.31708	7.729
5.28456	7.7578
5.25243	7.7851
5.2207	7.8164
5.18934	7.8476
5.15836	7.8799
5.12775	7.9079
5.09749	7.9319
5.0676	7.9577
5.03805	7.9829
5.00884	8.0051
4.97998	8.0346
4.95144	8.0622
4.92322	8.0942
4.89533	8.1291
4.86775	8.1584
4.84048	8.1848
4.81351	8.2099
4.78684	8.2392
4.76047	8.2641
4.73439	8.2868
4.70859	8.3086
4.68306	8.333
4.65782	8.3581
4.63284	8.3808
4.60814	8.4057
4.58369	8.4341
4.5595	8.4624
4.53557	8.4907
4.51188	8.5178
4.48845	8.5429
4.46525	8.5644
4.44229	8.5815
4.41957	8.5974
4.39708	8.612
4.37481	8.6301
4.35277	8.6428
4.33096	8.6482
4.30935	8.6704
4.28797	8.6936
4.26679	8.7168
4.24583	8.7402
4.22506	8.7634
4.2045	8.7861
4.18414	8.8147
4.16398	8.8479
4.14401	8.8745
4.12423	8.8962
4.10464	8.9199
4.08523	8.9375
4.066	8.9472
4.04696	8.9604
4.02809	8.9741
4.0094	8.9907
3.99088	9.0051
3.97253	9.0212
3.95435	9.0373
3.93634	9.0515
3.91848	9.0566
3.90079	9.0595
3.88326	9.0564
3.86589	9.05
3.84867	9.0803
3.8316	9.0898
3.81468	9.1042
3.79791	9.1223
3.78129	9.1365
3.76482	9.1479
3.74848	9.1584
3.73229	9.1692
3.71624	9.1875
3.70032	9.2051
3.68454	9.2231
3.6689	9.2368
3.65338	9.2497
3.638	9.2646
3.62275	9.2756
3.60762	9.2737
3.59262	9.2583
3.57775	9.2134
3.56299	9.1618
3.54836	9.1557
3.53385	9.1455
3.51945	9.2021
3.50517	9.2732
3.49101	9.2705
3.47696	9.2671
3.46303	9.2597
3.4492	9.2632
3.43549	9.2998
3.42188	9.3274
3.40838	9.3127
3.39499	9.2995
3.38171	9.2981
3.36852	9.3332
3.35544	9.3359
3.34246	9.3186
3.32958	9.3169
3.3168	9.3205
3.30411	9.3432
3.29153	9.3503
3.27903	9.341
3.26664	9.3327
3.25433	9.3237
3.24212	9.3086
3.23	9.3127
3.21797	9.313
3.20603	9.2971
3.19418	9.2971
3.18241	9.303
3.17074	9.3142
3.15914	9.3154
3.14763	9.3222
3.13621	9.3347
3.12487	9.3354
3.11361	9.3459
3.10243	9.3496
3.09133	9.3445
3.0803	9.3467
3.06936	9.3489
3.0585	9.3454
3.04771	9.3442
3.037	9.3442
3.02636	9.3471
3.0158	9.3589
3.00531	9.3637
2.99489	9.3545
2.98454	9.3506
2.97427	9.3432
2.96407	9.3449
2.95393	9.3537
2.94387	9.3645
2.93387	9.3843
2.92394	9.407
2.91408	9.4341
2.90429	9.4765
2.89456	9.5525
2.88489	9.6931
2.87529	10.0515
2.86576	10.041
2.85628	7.9895
2.84687	8.2046
2.83752	8.5581
2.82823	8.7517
2.81901	8.8752
2.80984	8.9407
2.80073	8.978
2.79168	9.0032
2.78269	9
2.77376	9.0007
2.76488	8.9931
2.75606	8.9902
2.7473	9.0019
2.73859	9.0002
2.72994	9.0232
2.72134	9.0224
2.7128	9.031
2.70431	9.0349
2.69587	9.0163
2.68748	9.031
2.67915	9.0503
2.67087	9.0613
2.66264	9.0801
2.65446	9.0906
2.64633	9.0959
2.63825	9.0759
2.63021	9.0669
2.62223	9.0886
2.6143	9.0969
2.60641	9.0852
2.59857	9.0991
2.59078	9.1181
2.58304	9.1594
2.57534	9.1738
2.56768	9.1533
2.56008	9.114
2.55251	9.1115
2.54499	9.1286
2.53752	9.1343
2.53009	9.1162
2.5227	9.0722
2.51536	9.0669
2.50806	9.0764
2.5008	9.0796
2.49358	9.0515
2.4864	9.0432
2.47927	9.02
2.47218	8.9988
2.46512	9.019
2.45811	9.0417
2.45114	9.0371
2.4442	9.0241
2.43731	9.0256
2.43045	9.0754
2.42363	9.0732
2.41685	8.9929
2.41011	8.957
2.40341	8.9807
2.39674	8.9719
2.39011	8.9585
2.38352	8.9729
2.37696	9.0823
2.37044	9.1848
2.36395	9.2429
2.35751	9.2439
2.35109	9.1706
2.34471	9.103
2.33836	9.1406
2.33205	9.156
2.32578	9.1308
2.31953	9.1372
2.31332	9.1228
2.30714	9.1706
2.301	9.1511
2.29489	9.1321
2.28881	9.0796
2.28276	9.0307
2.27675	9.0427
2.27076	9.0469
2.26481	9.0285
2.25889	9.0207
2.253	9.0241
2.24714	9.0405
2.24131	9.0471
2.23551	9.0263
2.22974	9.01
2.224	9.0005
2.21829	9.0102
2.21261	9.0395
2.20696	9.0571
2.20134	9.0476
2.19574	9.0158
2.19018	9.0117
2.18464	8.9978
2.17913	8.9726
2.17365	8.9638
2.16819	8.9504
2.16277	8.9258
2.15737	8.9253
2.15199	8.936
2.14665	8.9697
2.14133	8.9944
2.13603	8.99
2.13077	8.9695
2.12552	8.9563
2.12031	8.9665
2.11512	9.0022
2.10995	9.0766
2.10481	9.1675
2.0997	9.2466
2.09461	9.2988
2.08954	9.32
2.0845	9.28
2.07948	9.247
