Name: Acmite NaFe+3Si2O6
Type: Mineral
Class: Silicates
Subclass: Inosilicates (Pyroxene Group - single chain)
Particle Size: Solid
Sample No.: acmite.2
Owner: JHU
Wavelength Range: IR
Origin: Sample from Kangerdluarssuk, near Narssaq, Greenland via
Description: The sample consisted of large (up to 2 cm long and
Measurement: Bidirectional reflectance
X Units: Wavelength (micrometers)
Y Units: Reflectance (percent)
wavelength	value
25.044	16.6337
24.339	14.6963
23.672	15.2124
23.041	17.2197
22.442	19.8713
21.874	21.7329
21.334	23.1396
20.82	23.506
20.33	24.1071
19.863	25.851
19.416	23.9868
18.99	21.4272
18.581	20.2543
18.19	20.6069
17.815	22.2553
17.455	22.2006
17.109	16.0415
16.777	7.645
16.458	3.9668
16.15	4.9751
15.854	6.0996
15.568	7.4592
15.292	7.217
15.027	6.7624
14.77	7.1992
14.521	7.5381
14.281	7.8083
14.049	8.0967
13.824	8.322
13.607	8.5532
13.396	8.7334
13.191	8.9619
12.993	9.2678
12.8	9.6032
12.614	9.9531
12.432	10.3225
12.256	10.7715
12.084	11.2942
11.918	11.955
11.755	12.7683
11.598	13.0656
11.444	13.4428
11.294	14.1047
11.149	14.7509
11.007	15.6716
10.868	16.9777
10.733	18.9545
10.602	21.2514
10.473	22.0078
10.348	22.9789
10.225	22.4428
10.106	22.2614
9.989	23.0463
9.875	23.9716
9.763	25.4426
9.654	27.7302
9.547	30.5431
9.443	31.7831
9.341	29.9294
9.241	26.8613
9.143	23.2758
9.047	19.3818
8.954	16.2395
8.862	15.08
8.772	16.0075
8.684	15.0935
8.597	10.1611
8.513	6.9319
8.43	4.0557
8.348	2.4463
8.268	2.3945
8.19	2.7519
8.113	3.0601
8.037	3.3362
7.963	3.563
7.891	3.7873
7.819	3.9814
7.749	4.1511
7.68	4.3103
7.613	4.4387
7.546	4.5574
7.481	4.6467
7.417	4.7363
7.353	4.8203
7.291	4.904
7.23	4.9897
7.17	5.0559
7.111	5.1372
7.053	5.1958
6.996	5.2536
6.94	5.3074
6.885	5.3511
6.83	5.4026
6.777	5.4534
6.724	5.4773
6.672	5.5105
6.621	5.5434
6.571	5.5862
6.521	5.6052
6.472	5.6267
6.424	5.6504
6.377	5.6631
6.33	5.6943
6.284	5.7336
6.238	5.7615
6.194	5.7715
6.15	5.8176
6.106	5.8552
6.063	5.8835
6.021	5.8899
5.979	5.8811
5.938	5.8711
5.898	5.866
5.858	5.842
5.818	5.8196
5.779	5.832
5.741	5.8794
5.703	5.8948
5.666	5.8926
5.629	5.8818
5.592	5.9228
5.556	5.9839
5.521	6.0578
5.486	6.1045
5.451	6.1184
5.417	6.125
5.383	6.1199
5.35	6.1272
5.317	6.1225
5.285	6.1264
5.252	6.1255
5.221	6.1264
5.189	6.1406
5.158	6.1755
5.128	6.2048
5.097	6.241
5.068	6.281
5.038	6.3183
5.009	6.3396
4.98	6.3745
4.951	6.3972
4.923	6.4143
4.895	6.4341
4.868	6.4712
4.84	6.5032
4.814	6.5244
4.787	6.5618
4.76	6.6001
4.734	6.6433
4.709	6.6999
4.683	6.789
4.658	6.9001
4.633	7.0254
4.608	7.1621
4.584	7.2773
4.56	7.374
4.536	7.4768
4.512	7.5437
4.488	7.5908
4.465	7.6338
4.442	7.6548
4.42	7.6846
4.397	7.7212
4.375	7.74
4.353	7.7612
4.331	7.7627
4.309	7.7815
4.288	7.7895
4.267	7.8181
4.246	7.8332
4.225	7.8513
4.205	7.8486
4.184	7.8738
4.164	7.9018
4.144	7.9057
4.124	7.9211
4.105	7.9419
4.085	7.978
4.066	8.0149
4.047	8.0298
4.028	8.0512
4.009	8.0791
3.991	8.0888
3.973	8.1047
3.954	8.125
3.936	8.1374
3.918	8.1516
3.901	8.1611
3.883	8.1609
3.866	8.166
3.849	8.1694
3.832	8.1677
3.815	8.1821
3.798	8.177
3.781	8.1838
3.765	8.1994
3.748	8.1924
3.732	8.2048
3.716	8.2068
3.7	8.2168
3.685	8.1977
3.669	8.1938
3.653	8.1972
3.638	8.198
3.623	8.1836
3.608	8.1941
3.593	8.1828
3.578	8.1743
3.563	8.1567
3.548	8.1516
3.534	8.1267
3.519	8.0928
3.505	8.0344
3.491	8.0649
3.477	8.0512
3.463	8.0405
3.449	8.0071
3.435	7.9638
3.422	7.9214
3.408	7.9121
3.395	7.9341
3.382	7.9079
3.369	7.9175
3.355	7.9106
3.342	7.8921
3.33	7.8672
3.317	7.8305
3.304	7.8012
3.292	7.7783
3.279	7.7265
3.267	7.6914
3.254	7.6523
3.242	7.6047
3.23	7.562
3.218	7.539
3.206	7.4778
3.194	7.4385
3.182	7.3948
3.171	7.3437
3.159	7.3042
3.148	7.2502
3.136	7.188
3.125	7.1582
3.114	7.1108
3.102	7.0762
3.091	7.0405
3.08	7.0093
3.069	6.9824
3.058	6.9433
3.048	6.9136
3.037	6.8813
3.026	6.8501
3.016	6.8215
3.005	6.7868
2.995	6.7409
2.985	6.729
2.974	6.6958
2.964	6.6723
2.954	6.6482
2.944	6.6289
2.934	6.5947
2.924	6.5913
2.914	6.5818
2.904	6.5779
2.895	6.5693
2.885	6.5771
2.875	6.5547
2.866	6.5722
2.856	6.5815
2.847	6.5766
2.838	6.5784
2.828	6.5708
2.819	6.5779
2.81	6.6172
2.801	6.6223
2.792	6.6255
2.783	6.6704
2.774	6.7021
2.765	6.7085
2.756	6.7524
2.747	6.8042
2.739	6.8452
2.73	6.8598
2.721	6.8662
2.713	6.9087
2.704	6.9829
2.696	6.9922
2.687	7.0005
2.679	6.9868
2.671	6.9746
2.663	6.9399
2.654	6.9111
2.646	6.8989
2.638	6.8852
2.63	6.8674
2.622	6.8118
2.614	6.792
2.606	6.769
2.599	6.7392
2.591	6.7363
2.583	6.7012
2.575	6.6682
2.568	6.6709
2.56	6.6186
2.553	6.602
2.545	6.5625
2.538	6.539
2.53	6.5022
2.523	6.4988
2.515	6.4585
2.508	6.468
2.501	6.4272
2.494	6.4009
2.486	6.3896
2.479	6.3684
2.472	6.3384
2.465	6.2905
2.458	6.2744
2.451	6.2649
2.444	6.2275
2.437	6.2358
2.43	6.1987
2.424	6.1926
2.417	6.178
2.41	6.1582
2.403	6.1379
2.397	6.1125
2.39	6.0869
2.384	6.0713
2.377	6.0625
2.37	6.0527
2.364	6.0356
2.358	6.0237
2.351	6.0129
2.345	5.9758
2.338	5.957
2.332	5.9397
2.326	5.9504
2.32	5.9123
2.313	5.9172
2.307	5.9233
2.301	5.8996
2.295	5.8926
2.289	5.9111
2.283	5.8713
2.277	5.8801
2.271	5.8437
2.265	5.8056
2.259	5.8557
2.253	5.81
2.247	5.7876
2.241	5.7905
2.236	5.792
2.23	5.7807
2.224	5.8013
2.218	5.7446
2.213	5.7344
2.207	5.7524
2.201	5.77
2.196	5.7314
2.19	5.7212
2.185	5.7324
2.179	5.7129
2.174	5.7402
2.168	5.7099
2.163	5.7212
2.157	5.7388
2.152	5.7197
2.147	5.6919
2.141	5.6997
2.136	5.7334
2.131	5.6621
2.126	5.6567
2.12	5.6728
2.115	5.6631
2.11	5.7056
2.105	5.6704
2.1	5.6313
2.095	5.6704
2.09	5.6601
2.085	5.6445
2.079	5.664
