Name: Lizardite Mg3Si2O5(OH)4
Type: Mineral
Class: Silicates
Subclass: Phyllosilicates (Sheet Silicates); (Serpentine/Kaoline Group)
Particle Size: Fine (0-60 micrometers); Sifted
Sample No.: lizard.1
Owner: JHU
Wavelength Range: IR
Origin: Austria via the Smithsonian (sample no. NMNH R4687),
Description: Sample was a small amount of fine white powder.  Only
Measurement: Bidirectional reflectance
X Units: Wavelength (micrometers)
Y Units: Reflectance (percent)
wavelength	value
25.0442	0.5159
24.3388	0.3477
23.6719	0.3875
23.0407	0.2747
22.4422	0.4158
21.8741	0.3892
21.334	0.3787
20.8199	0.3345
20.33	0.3958
19.8627	0.3601
19.4163	0.2568
18.9896	0.1777
18.5812	0.3198
18.19	0.3477
17.815	0.2871
17.4551	0.2693
17.1094	0.2129
16.7772	0.2207
16.4576	0.2371
16.15	0.2637
15.8537	0.292
15.568	0.301
15.2925	0.3069
15.0265	0.3467
14.7697	0.2666
14.5214	0.1858
14.2814	0.1379
14.0492	0.1262
13.8244	0.1777
13.6067	0.2954
13.3957	0.4939
13.1912	0.7561
12.9929	0.9934
12.8004	1.2185
12.6135	1.4639
12.432	1.4924
12.2557	1.52
12.0843	1.8342
11.9176	2.063
11.7555	2.1516
11.5977	2.2014
11.444	2.1628
11.2944	2.0603
11.1487	1.6748
11.0067	0.9958
10.8682	0.502
10.7332	0.2607
10.6015	0.2024
10.473	0.2261
10.3476	0.2422
10.2251	0.2427
10.1056	0.2546
9.98873	0.2529
9.87458	0.2729
9.763	0.3176
9.65392	0.2458
9.54724	0.1833
9.44291	0.1526
9.34082	0.1506
9.24091	0.1489
9.14312	0.2285
9.04739	0.4397
8.95363	0.4641
8.8618	0.2734
8.77183	0.137
8.68368	0.1257
8.59727	0.2139
8.51257	0.3477
8.42951	0.4922
8.34807	0.6333
8.26819	0.7798
8.18981	1.0049
8.11292	1.1792
8.03745	1.3484
7.96337	1.5264
7.89064	1.6968
7.81924	1.8474
7.74911	1.9856
7.68023	2.0364
7.61256	2.1033
7.54608	2.2007
7.48074	2.3462
7.41653	2.4546
7.35341	2.5793
7.29136	2.6853
7.23034	2.7822
7.17033	2.8621
7.11132	2.9101
7.05327	2.9441
6.99616	3.0354
6.93996	3.1079
6.88467	3.1682
6.83024	3.2085
6.77667	3.3186
6.72393	3.4451
6.67201	3.5505
6.62089	3.6194
6.57054	3.5588
6.52095	3.4133
6.4721	3.2121
6.42398	3.0967
6.37657	3.1106
6.32986	3.105
6.28382	3.029
6.23845	2.948
6.19373	2.9206
6.14965	2.9675
6.10619	3.0674
6.06334	3.2026
6.02109	3.2773
5.97942	3.3013
5.93832	3.3799
5.89778	3.5713
5.8578	3.7932
5.81835	3.9536
5.77943	4.103
5.74103	4.2292
5.70314	4.3806
5.66574	4.5246
5.62883	4.647
5.5924	4.7095
5.55644	4.7358
5.52093	4.7922
5.48588	4.8823
5.45127	4.9807
5.41709	5.0525
5.38334	5.1304
5.35	5.2456
5.31708	5.4431
5.28456	5.5918
5.25243	5.7119
5.2207	5.8005
5.18934	5.8479
5.15836	5.8345
5.12775	5.7966
5.09749	5.7878
5.0676	5.7634
5.03805	5.7395
5.00884	5.7175
4.97998	5.7666
4.95144	5.8364
4.92322	5.8689
4.89533	5.97
4.86775	6.029
4.84048	6.0144
4.81351	5.9912
4.78684	6.0491
4.76047	6.1828
4.73439	6.2803
4.70859	6.3486
4.68306	6.3789
4.65782	6.4123
4.63284	6.4421
4.60814	6.4765
4.58369	6.5105
4.5595	6.5361
4.53557	6.5657
4.51188	6.5876
4.48845	6.6047
4.46525	6.615
4.44229	6.6264
4.41957	6.6401
4.39708	6.6514
4.37481	6.6504
4.35277	6.6745
4.33096	6.6675
4.30935	6.6714
4.28797	6.6621
4.26679	6.6816
4.24583	6.6933
4.22506	6.7024
4.2045	6.7192
4.18414	6.7236
4.16398	6.7204
4.14401	6.7334
4.12423	6.7395
4.10464	6.7475
4.08523	6.7563
4.066	6.7629
4.04696	6.7668
4.02809	6.7746
4.0094	6.7712
3.99088	6.7573
3.97253	6.7341
3.95435	6.7331
3.93634	6.7373
3.91848	6.7378
3.90079	6.7495
3.88326	6.7446
3.86589	6.7446
3.84867	6.7363
3.8316	6.7104
3.81468	6.6833
3.79791	6.6753
3.78129	6.6648
3.76482	6.6494
3.74848	6.6362
3.73229	6.6076
3.71624	6.5842
3.70032	6.5332
3.68454	6.5332
3.6689	6.5151
3.65338	6.4878
3.638	6.477
3.62275	6.4475
3.60762	6.4204
3.59262	6.385
3.57775	6.353
3.56299	6.3074
3.54836	6.2451
3.53385	6.1689
3.51945	5.9819
3.50517	5.7314
3.49101	5.7143
3.47696	5.7275
3.46303	5.7358
3.4492	5.6531
3.43549	5.5115
3.42188	5.2651
3.40838	5.1824
3.39499	5.3525
3.38171	5.3467
3.36852	5.3664
3.35544	5.4846
3.34246	5.5408
3.32958	5.551
3.3168	5.5178
3.30411	5.4687
3.29153	5.4289
3.27903	5.3747
3.26664	5.3486
3.25433	5.3076
3.24212	5.258
3.23	5.2141
3.21797	5.2192
3.20603	5.2063
3.19418	5.1484
3.18241	5.1023
3.17074	5.0383
3.15914	4.9758
3.14763	4.9143
3.13621	4.8411
3.12487	4.7883
3.11361	4.7507
3.10243	4.7029
3.09133	4.6645
3.0803	4.6269
3.06936	4.5759
3.0585	4.5029
3.04771	4.4331
3.037	4.3638
3.02636	4.2856
3.0158	4.2007
3.00531	4.1011
2.99489	3.9675
2.98454	3.7842
2.97427	3.5442
2.96407	3.2729
2.95393	3.0691
2.94387	2.9783
2.93387	2.9578
2.92394	2.9573
2.91408	3.0215
2.90429	3.1587
2.89456	3.3237
2.88489	3.4299
2.87529	3.447
2.86576	3.3489
2.85628	3.1426
2.84687	2.7964
2.83752	2.2812
2.82823	1.7837
2.81901	1.4709
2.80984	1.5249
2.80073	1.9192
2.79168	2.0076
2.78269	1.8208
2.77376	1.7803
2.76488	2.5088
2.75606	2.3508
2.7473	1.3452
2.73859	0.729
2.72994	0.5349
2.72134	0.2847
2.7128	0.0999
2.70431	0.3074
2.69587	2.1587
2.68748	4.6545
2.67915	5.5264
2.67087	6.0039
2.66264	6.2353
2.65446	6.2873
2.64633	6.4111
2.63825	6.5766
2.63021	6.5637
2.62223	6.5937
2.6143	6.5615
2.60641	6.5478
2.59857	6.5742
2.59078	6.5049
2.58304	6.458
2.57534	6.4231
2.56768	6.3493
2.56008	6.2871
2.55251	6.3581
2.54499	6.3901
2.53752	6.4121
2.53009	6.3823
2.5227	6.2873
2.51536	6.1653
2.50806	6.157
2.5008	6.261
2.49358	6.3213
2.4864	6.3357
2.47927	6.4057
2.47218	6.5615
2.46512	6.6452
2.45811	6.6631
2.45114	6.5749
2.4442	6.468
2.43731	6.4577
2.43045	6.5317
2.42363	6.5552
2.41685	6.5657
2.41011	6.5818
2.40341	6.5779
2.39674	6.5752
2.39011	6.6096
2.38352	6.6413
2.37696	6.6025
2.37044	6.6479
2.36395	6.813
2.35751	6.7991
2.35109	6.7334
2.34471	6.4451
2.33836	6.1614
2.33205	6.0535
2.32578	5.9729
2.31953	6.0749
2.31332	6.2861
2.30714	6.4504
2.301	6.5622
2.29489	6.6421
2.28881	6.728
2.28276	6.8076
2.27675	6.8179
2.27076	6.8179
2.26481	6.9858
2.25889	7.1123
2.253	7.1213
2.24714	7.136
2.24131	7.1777
2.23551	7.2898
2.22974	7.3865
2.224	7.4287
2.21829	7.466
2.21261	7.4734
2.20696	7.4895
2.20134	7.5193
2.19574	7.5141
2.19018	7.5122
2.18464	7.5329
2.17913	7.5137
2.17365	7.5
2.16819	7.5647
2.16277	7.5769
2.15737	7.5483
2.15199	7.4968
2.14665	7.4958
2.14133	7.4678
2.13603	7.4653
2.13077	7.4697
2.12552	7.4687
2.12031	7.4385
2.11512	7.479
2.10995	7.5105
2.10481	7.4946
2.0997	7.5549
2.09461	7.5239
2.08954	7.5766
2.0845	7.6081
2.07948	7.6155
