Name: Phlogopite KMg3Si3Al010(F,OH)2
Type: Mineral
Class: Silicates
Subclass: Phyllosilicates (Sheet Silicates); (Mica Group)
Particle Size: Fine  (Less than 2  Micrometers)
Sample No.: phlogop.1
Owner: JHU
Wavelength Range: IR
Origin: Burgess, Ontario, Canada via the Smithsonian (sample no.
Description: The hand sample consisted of rectangular sheets
Measurement: Transmission
X Units: Wavelength (micrometers)
Y Units: Transmittance (percent)
wavelength	value
25.0442	59.8592
24.3388	55.535
23.6719	50.371
23.0407	43.3222
22.4422	37.4315
21.8741	38.119
21.334	39.0331
20.8199	43.6171
20.33	43.1737
19.8627	46.7352
19.4163	47.1835
18.9896	45.5751
18.5812	50.9628
18.19	60.2039
17.815	67.6307
17.4551	70.4158
17.1094	69.369
16.7772	63.535
16.4576	71.2625
16.15	73.9451
15.8537	74.7156
15.568	73.6639
15.2925	70.6004
15.0265	70.6297
14.7697	63.7733
14.5214	63.7772
14.2814	70.4559
14.0492	73.0858
13.8244	72.8631
13.6067	70.5662
13.3957	70.0081
13.1912	75.2171
12.9929	78.9358
12.8004	80.6599
12.6135	78.1995
12.432	72.24
12.2557	69.91
12.0843	75.9129
11.9176	80.3128
11.7555	80.8865
11.5977	80.221
11.444	77.8519
11.2944	73.9734
11.1487	68.5057
11.0067	63.0389
10.8682	57.8792
10.7332	51.326
10.6015	43.0468
10.473	34.0302
10.3476	29.9843
10.2251	31.914
10.1056	32.6025
9.98873	32.0121
9.87458	33.828
9.763	38.8847
9.65392	44.1591
9.54724	49.4178
9.44291	52.8675
9.34082	55.2713
9.24091	58.2699
9.14312	61.9085
9.04739	65.6629
8.95363	68.5799
8.8618	69.6639
8.77183	69.8445
8.68368	69.9925
8.59727	70.013
8.51257	67.2313
8.42951	64.4027
8.34807	59.7235
8.26819	60.5948
8.18981	64.7667
8.11292	69.8594
8.03745	74.8035
7.96337	78.1944
7.89064	80.9307
7.81924	83.1209
7.74911	84.4629
7.68023	85.1643
7.61256	85.749
7.54608	86.2598
7.48074	86.5652
7.41653	86.9024
7.35341	87.3057
7.29136	87.5987
7.23034	87.0254
7.17033	88.6843
7.11132	89.1521
7.05327	89.4815
6.99616	89.8037
6.93996	90.1716
6.88467	90.2859
6.83024	90.2312
6.77667	90.5449
6.72393	90.791
6.67201	90.9006
6.62089	91.0847
6.57054	91.1487
6.52095	91.3543
6.4721	91.1389
6.42398	91.2434
6.37657	91.2442
6.32986	90.9541
6.28382	90.5945
6.23845	89.5379
6.19373	88.366
6.14965	86.6026
6.10619	86.4834
6.06334	88.2354
6.02109	90.4844
5.97942	92.2996
5.93832	92.53
5.89778	92.5584
5.8578	92.8001
5.81835	93.1126
5.77943	93.2568
5.74103	93.4238
5.70314	93.5496
5.66574	93.7031
5.62883	93.7595
5.5924	93.8626
5.55644	93.9514
5.52093	94.0088
5.48588	94.0769
5.45127	94.1804
5.41709	94.3047
5.38334	94.2605
5.35	94.4187
5.31708	94.4597
5.28456	94.5002
5.25243	94.4551
5.2207	94.4053
5.18934	94.3025
5.15836	94.2793
5.12775	94.2188
5.09749	94.1912
5.0676	94.2168
5.03805	94.2214
5.00884	94.2354
4.97998	94.2493
4.95144	94.2791
4.92322	94.2478
4.89533	94.2376
4.86775	94.2791
4.84048	94.2844
4.81351	94.3635
4.78684	94.3855
4.76047	94.4163
4.73439	94.4705
4.70859	94.5276
4.68306	94.5535
4.65782	94.6121
4.63284	94.6609
4.60814	94.8245
4.58369	94.6877
4.5595	94.7151
4.53557	94.6834
4.51188	94.7166
4.48845	94.696
4.46525	94.6643
4.44229	94.698
4.41957	94.6995
4.39708	94.7034
4.37481	94.7087
4.35277	94.6863
4.33096	94.6931
4.30935	94.6526
4.28797	94.6907
4.26679	94.6726
4.24583	94.6667
4.22506	94.6331
4.2045	94.5994
4.18414	94.6917
4.16398	94.6003
4.14401	94.5642
4.12423	94.5769
4.10464	94.5667
4.08523	94.5164
4.066	94.4851
4.04696	94.4177
4.02809	94.4158
4.0094	94.3669
3.99088	94.3147
3.97253	94.2835
3.95435	94.2336
3.93634	94.2483
3.91848	94.2463
3.90079	94.1843
3.88326	94.1199
3.86589	94.0173
3.84867	94.0686
3.8316	93.9646
3.81468	93.8962
3.79791	93.9612
3.78129	93.8401
3.76482	93.8123
3.74848	93.6663
3.73229	93.6697
3.71624	93.6199
3.70032	93.5554
3.68454	93.5178
3.6689	93.4456
3.65338	93.4299
3.638	93.3679
3.62275	93.2361
3.60762	93.2195
3.59262	93.1716
3.57775	93.137
3.56299	92.9963
3.54836	92.8914
3.53385	92.7659
3.51945	92.5784
3.50517	92.2185
3.49101	92.3045
3.47696	92.2097
3.46303	92.1155
3.4492	92.0388
3.43549	91.6804
3.42188	91.4295
3.40838	91.4461
3.39499	91.6292
3.38171	91.6936
3.36852	91.8323
3.35544	91.9202
3.34246	91.9002
3.32958	91.8259
3.3168	91.7576
3.30411	91.7459
3.29153	91.6018
3.27903	91.5003
3.26664	91.4099
3.25433	91.2478
3.24212	91.1702
3.23	91.0588
3.21797	90.908
3.20603	90.7478
3.19418	90.4412
3.18241	90.3025
3.17074	90.0339
3.15914	89.7088
3.14763	89.3445
3.13621	89.0095
3.12487	88.5896
3.11361	88.1863
3.10243	87.6062
3.09133	87.0115
3.0803	86.451
3.06936	85.989
3.0585	85.5115
3.04771	85.2146
3.037	84.739
3.02636	84.1746
3.0158	83.3582
3.00531	82.5213
2.99489	81.3015
2.98454	80.0516
2.97427	78.5076
2.96407	76.8953
2.95393	75.3768
2.94387	74.3094
2.93387	73.4149
2.92394	72.74
2.91408	72.4647
2.90429	72.7928
2.89456	73.2518
2.88489	73.9744
2.87529	74.4451
2.86576	75.2391
2.85628	76.16
2.84687	77.1834
2.83752	78.3055
2.82823	79.5857
2.81901	80.9197
2.80984	82.4529
2.80073	83.7596
2.79168	85.1033
2.78269	85.8963
2.77376	87.7361
2.76488	89.3943
2.75606	90.406
2.7473	91.3093
2.73859	91.3318
2.72994	91.2966
2.72134	91.4255
2.7128	91.5388
2.70431	90.1609
2.69587	90.2341
2.68748	91.1755
2.67915	92.7703
2.67087	93.0955
2.66264	93.0662
2.65446	93.1365
2.64633	92.9412
2.63825	92.9783
2.63021	92.9412
2.62223	92.8054
2.6143	92.9461
2.60641	92.7771
2.59857	92.8669
2.59078	92.8093
2.58304	92.7576
2.57534	92.6921
2.56768	92.6306
2.56008	92.6834
2.55251	92.5134
2.54499	92.5701
2.53752	92.7146
2.53009	92.5427
2.5227	92.2986
2.51536	92.3513
2.50806	92.5271
2.5008	92.4959
2.49358	92.4548
2.4864	92.4705
2.47927	92.2498
2.47218	92.4236
2.46512	92.4099
2.45811	92.3045
2.45114	92.3279
2.4442	92.1443
2.43731	92.2439
2.43045	92.1814
2.42363	92.0232
2.41685	92.3298
2.41011	92.1658
2.40341	92.0896
2.39674	92.0115
2.39011	91.9158
2.38352	91.9002
2.37696	91.9314
2.37044	92.0115
2.36395	92.1892
2.35751	91.8689
2.35109	91.9568
2.34471	91.8377
2.33836	91.8865
2.33205	91.5115
2.32578	91.5466
2.31953	91.8435
2.31332	91.617
2.30714	91.5252
2.301	91.613
2.29489	91.7752
2.28881	91.6951
2.28276	91.6345
2.27675	91.6111
2.27076	91.4138
2.26481	91.7127
2.25889	91.5427
2.253	91.6423
2.24714	91.658
2.24131	91.3826
2.23551	91.4939
2.22974	91.617
2.224	91.4548
2.21829	91.5701
2.21261	91.2205
2.20696	91.3513
2.20134	91.281
2.19574	91.4295
2.19018	91.492
2.18464	91.2263
2.17913	91.0564
2.17365	91.406
2.16819	91.4529
2.16277	91.1638
2.15737	91.0623
2.15199	91.0505
2.14665	90.8943
2.14133	90.8005
2.13603	91.281
2.13077	91.1638
2.12552	90.9646
2.12031	90.988
2.11512	91.113
2.10995	90.7029
2.10481	91.0037
2.0997	91.3162
2.09461	91.3513
2.08954	91.156
2.0845	91.0154
2.07948	90.9685
