Name: Riebeckite Na2(Fe+2,Mg)3Fe2+3Si8O22(OH)2
Type: Mineral
Class: Silicates
Subclass: Inosilicates (chain silicates); (Amphibole Group)
Particle Size: Solid (cleavage face)
Sample No.: riebeck.1
Owner: JHU
Wavelength Range: IR
Origin: Hurricane Mountain, Conway, New Hampshire via the
Description: The sample was an 11.54 g portion of a black crystal.
Measurement: Bidirectional reflectance
X Units: Wavelength (micrometers)
Y Units: Reflectance (percent)
wavelength	value
25.0442	14.0683
24.3388	14.5312
23.6719	16.3891
23.0407	19.0205
22.4422	24.2455
21.8741	27.6359
21.334	27.3779
20.8199	29.7607
20.33	31.6088
19.8627	32.0048
19.4163	30.8398
18.9896	23.2516
18.5812	22.2009
18.19	23.7001
17.815	17.2988
17.4551	8.6181
17.1094	4.064
16.7772	3.1536
16.4576	3.6982
16.15	4.1826
15.8537	4.7319
15.568	5.176
15.2925	4.9336
15.0265	5.1555
14.7697	4.8428
14.5214	5.1484
14.2814	5.4375
14.0492	5.6711
13.8244	6.0683
13.6067	6.5705
13.3957	7.1343
13.1912	6.7353
12.9929	6.3127
12.8004	6.3293
12.6135	6.7431
12.432	7.1506
12.2557	7.5671
12.0843	7.9712
11.9176	8.4006
11.7555	8.9267
11.5977	9.5945
11.444	10.1369
11.2944	10.3301
11.1487	10.6557
11.0067	11.2444
10.8682	12.5351
10.7332	14.2702
10.6015	17.3908
10.473	21.53
10.3476	24.1762
10.2251	26.1945
10.1056	26.6371
9.98873	27.0278
9.87458	25.1147
9.763	23.8146
9.65392	22.9208
9.54724	19.2739
9.44291	21.0192
9.34082	23.1433
9.24091	23.7355
9.14312	20.3791
9.04739	16.7236
8.95363	14.479
8.8618	14.8781
8.77183	18.1425
8.68368	18.1127
8.59727	14.0464
8.51257	8.7571
8.42951	4.3276
8.34807	1.6565
8.26819	1.1106
8.18981	1.2744
8.11292	1.5168
8.03745	1.7541
7.96337	1.9736
7.89064	2.1821
7.81924	2.3686
7.74911	2.5386
7.68023	2.6912
7.61256	2.822
7.54608	2.9431
7.48074	3.0679
7.41653	3.1865
7.35341	3.2883
7.29136	3.3894
7.23034	3.4792
7.17033	3.5576
7.11132	3.6487
7.05327	3.7278
6.99616	3.8059
6.93996	3.8855
6.88467	3.9446
6.83024	4.0088
6.77667	4.0586
6.72393	4.1186
6.67201	4.1704
6.62089	4.2195
6.57054	4.2678
6.52095	4.3352
6.4721	4.3623
6.42398	4.3689
6.37657	4.3953
6.32986	4.3935
6.28382	4.3916
6.23845	4.4126
6.19373	4.4167
6.14965	4.4551
6.10619	4.5017
6.06334	4.5434
6.02109	4.5688
5.97942	4.5964
5.93832	4.582
5.89778	4.6086
5.8578	4.6645
5.81835	4.6699
5.77943	4.6899
5.74103	4.7043
5.70314	4.7097
5.66574	4.7317
5.62883	4.7463
5.5924	4.7732
5.55644	4.814
5.52093	4.876
5.48588	4.9292
5.45127	4.9741
5.41709	5.0112
5.38334	5.071
5.35	5.1308
5.31708	5.1841
5.28456	5.2097
5.25243	5.2519
5.2207	5.2776
5.18934	5.3127
5.15836	5.3508
5.12775	5.3745
5.09749	5.4006
5.0676	5.4263
5.03805	5.4548
5.00884	5.498
4.97998	5.5266
4.95144	5.581
4.92322	5.6362
4.89533	5.6907
4.86775	5.7546
4.84048	5.813
4.81351	5.8589
4.78684	5.9121
4.76047	5.9719
4.73439	6.0049
4.70859	6.0649
4.68306	6.1308
4.65782	6.2104
4.63284	6.2976
4.60814	6.4111
4.58369	6.5505
4.5595	6.675
4.53557	6.7883
4.51188	6.8877
4.48845	6.9729
4.46525	7.051
4.44229	7.1179
4.41957	7.1726
4.39708	7.2173
4.37481	7.2715
4.35277	7.313
4.33096	7.3562
4.30935	7.3843
4.28797	7.4214
4.26679	7.4519
4.24583	7.4851
4.22506	7.5036
4.2045	7.5471
4.18414	7.5786
4.16398	7.6169
4.14401	7.6504
4.12423	7.6755
4.10464	7.7158
4.08523	7.749
4.066	7.7785
4.04696	7.8074
4.02809	7.8432
4.0094	7.8855
3.99088	7.915
3.97253	7.9543
3.95435	7.9897
3.93634	8.0271
3.91848	8.0554
3.90079	8.0954
3.88326	8.1291
3.86589	8.1535
3.84867	8.1733
3.8316	8.2043
3.81468	8.2236
3.79791	8.2458
3.78129	8.2705
3.76482	8.3083
3.74848	8.3198
3.73229	8.3374
3.71624	8.3703
3.70032	8.3855
3.68454	8.3867
3.6689	8.4209
3.65338	8.4267
3.638	8.4424
3.62275	8.467
3.60762	8.4753
3.59262	8.4736
3.57775	8.4829
3.56299	8.4514
3.54836	8.4136
3.53385	8.4138
3.51945	8.4101
3.50517	8.2734
3.49101	8.344
3.47696	8.3625
3.46303	8.3767
3.4492	8.3249
3.43549	8.2407
3.42188	8.0671
3.40838	8.0766
3.39499	8.1604
3.38171	8.1252
3.36852	8.177
3.35544	8.2695
3.34246	8.3056
3.32958	8.3037
3.3168	8.313
3.30411	8.3252
3.29153	8.3926
3.27903	8.4328
3.26664	8.4743
3.25433	8.4665
3.24212	8.4702
3.23	8.4424
3.21797	8.4416
3.20603	8.457
3.19418	8.4607
3.18241	8.4878
3.17074	8.4975
3.15914	8.5232
3.14763	8.53
3.13621	8.5093
3.12487	8.5119
3.11361	8.5051
3.10243	8.508
3.09133	8.5049
3.0803	8.49
3.06936	8.4829
3.0585	8.4663
3.04771	8.4717
3.037	8.4707
3.02636	8.459
3.0158	8.4512
3.00531	8.4546
2.99489	8.4707
2.98454	8.4966
2.97427	8.5215
2.96407	8.519
2.95393	8.5256
2.94387	8.529
2.93387	8.5664
2.92394	8.5603
2.91408	8.5615
2.90429	8.5791
2.89456	8.5915
2.88489	8.5674
2.87529	8.5532
2.86576	8.5515
2.85628	8.5932
2.84687	8.5849
2.83752	8.6128
2.82823	8.6164
2.81901	8.5918
2.80984	8.5698
2.80073	8.5185
2.79168	8.458
2.78269	8.3174
2.77376	7.5102
2.76488	6.3442
2.75606	6.9761
2.7473	6.584
2.73859	6.7158
2.72994	7.8887
2.72134	8.2131
2.7128	8.3147
2.70431	8.0674
2.69587	8.9057
2.68748	9.6247
2.67915	9.8857
2.67087	9.9238
2.66264	9.9809
2.65446	9.9756
2.64633	10.0168
2.63825	10.0339
2.63021	10.1164
2.62223	10.1789
2.6143	10.2221
2.60641	10.2492
2.59857	10.2492
2.59078	10.2593
2.58304	10.2756
2.57534	10.289
2.56768	10.2873
2.56008	10.312
2.55251	10.3139
2.54499	10.2905
2.53752	10.2522
2.53009	10.2236
2.5227	10.2251
2.51536	10.1816
2.50806	10.2226
2.5008	10.2531
2.49358	10.2329
2.4864	10.2805
2.47927	10.3105
2.47218	10.3423
2.46512	10.3498
2.45811	10.376
2.45114	10.3418
2.4442	10.2795
2.43731	10.2424
2.43045	10.1074
2.42363	9.9377
2.41685	9.8242
2.41011	9.8232
2.40341	9.9414
2.39674	10.0937
2.39011	10.218
2.38352	10.3286
2.37696	10.3857
2.37044	10.4094
2.36395	10.2793
2.35751	9.9416
2.35109	9.4531
2.34471	9.1321
2.33836	9.1943
2.33205	9.4463
2.32578	9.7597
2.31953	10.0439
2.31332	10.186
2.30714	10.2226
2.301	10.3335
2.29489	10.417
2.28881	10.4472
2.28276	10.4692
2.27675	10.5566
2.27076	10.5332
2.26481	10.5547
2.25889	10.5942
2.253	10.5664
2.24714	10.5595
2.24131	10.562
2.23551	10.5659
2.22974	10.5571
2.224	10.5468
2.21829	10.541
2.21261	10.5342
2.20696	10.5146
2.20134	10.5185
2.19574	10.5122
2.19018	10.5376
2.18464	10.4795
2.17913	10.4951
2.17365	10.5278
2.16819	10.5205
2.16277	10.4765
2.15737	10.5102
2.15199	10.4951
2.14665	10.4697
2.14133	10.4502
2.13603	10.477
2.13077	10.4414
2.12552	10.4902
2.12031	10.498
2.11512	10.4843
2.10995	10.4926
2.10481	10.4848
2.0997	10.4907
2.09461	10.5337
2.08954	10.5029
2.0845	10.5039
2.07948	10.5239
