Name: Orthoclase KAlSi3O8
Type: Mineral
Class: Silicates
Subclass: Tectosilicates (Framework Silicates); (Feldspar Group)
Particle Size: Solid (parallel to 010)
Sample No.: orthocl.3
Owner: JHU
Wavelength Range: IR
Origin: Harris Farm Mica Mine, near Oliver, Goochland Co., Virginia
Description: The hand sample is a single 11.97 g fragment of a single
Measurement: Bidirectional reflectance
X Units: Wavelength (micrometers)
Y Units: Reflectance (percent)
wavelength	value
25.0442	22.7187
24.3388	21.914
23.6719	24.5126
23.0407	27.4394
22.4422	24.1352
21.8741	17.8847
21.334	15.5175
20.8199	16.4052
20.33	15.6972
19.8627	16.2177
19.4163	16.9736
18.9896	18.0383
18.5812	19.8051
18.19	22.4057
17.815	25.2241
17.4551	30.1659
17.1094	31.8105
16.7772	31.2746
16.4576	28.5822
16.15	22.2309
15.8537	13.4931
15.568	12.7065
15.2925	11.3137
15.0265	9.4258
14.7697	10.2182
14.5214	11.0713
14.2814	11.9995
14.0492	12.7602
13.8244	12.9079
13.6067	12.3537
13.3957	12.2509
13.1912	12.5371
12.9929	12.7263
12.8004	12.2988
12.6135	12.0234
12.432	12.1098
12.2557	12.7412
12.0843	13.3232
11.9176	13.7534
11.7555	14.2505
11.5977	14.6699
11.444	15.0373
11.2944	15.4897
11.1487	15.9804
11.0067	16.5002
10.8682	17.1413
10.7332	17.8808
10.6015	18.7058
10.473	19.7978
10.3476	21.2346
10.2251	23.1606
10.1056	25.2294
9.98873	27.4621
9.87458	30.3151
9.763	32.5522
9.65392	35.987
9.54724	40.3964
9.44291	43.1188
9.34082	35.1364
9.24091	32.4511
9.14312	32.4042
9.04739	33.3461
8.95363	34.705
8.8618	36.456
8.77183	39.7445
8.68368	41.0214
8.59727	40.831
8.51257	40.5963
8.42951	39.9674
8.34807	38.1994
8.26819	33.3935
8.18981	26.3268
8.11292	18.9709
8.03745	13.1516
7.96337	8.1291
7.89064	4.0456
7.81924	2.9358
7.74911	3.4033
7.68023	4.011
7.61256	4.5459
7.54608	5.0188
7.48074	5.4016
7.41653	5.7554
7.35341	6.0434
7.29136	6.3076
7.23034	6.5307
7.17033	6.7341
7.11132	6.9609
7.05327	7.1098
6.99616	7.2915
6.93996	7.4394
6.88467	7.573
6.83024	7.6555
6.77667	7.7153
6.72393	7.8181
6.67201	7.8982
6.62089	8.0022
6.57054	8.0222
6.52095	8.1445
6.4721	8.2075
6.42398	8.2456
6.37657	8.3567
6.32986	8.4187
6.28382	8.4824
6.23845	8.5544
6.19373	8.5937
6.14965	8.6562
6.10619	8.6802
6.06334	8.7478
6.02109	8.7859
5.97942	8.8137
5.93832	8.7563
5.89778	8.8222
5.8578	8.9101
5.81835	8.8371
5.77943	9.0371
5.74103	9.1845
5.70314	9.1011
5.66574	9.0439
5.62883	9.0566
5.5924	9.0786
5.55644	9.0881
5.52093	9.1106
5.48588	9.1286
5.45127	9.1509
5.41709	9.1574
5.38334	9.1936
5.35	9.1933
5.31708	9.2287
5.28456	9.2573
5.25243	9.281
5.2207	9.3069
5.18934	9.3344
5.15836	9.362
5.12775	9.3691
5.09749	9.3906
5.0676	9.405
5.03805	9.4204
5.00884	9.4236
4.97998	9.4304
4.95144	9.437
4.92322	9.4487
4.89533	9.4538
4.86775	9.4653
4.84048	9.4594
4.81351	9.4526
4.78684	9.4599
4.76047	9.4726
4.73439	9.4712
4.70859	9.4822
4.68306	9.5083
4.65782	9.5105
4.63284	9.5219
4.60814	9.5385
4.58369	9.552
4.5595	9.5564
4.53557	9.5639
4.51188	9.5637
4.48845	9.5918
4.46525	9.5986
4.44229	9.6042
4.41957	9.6054
4.39708	9.6216
4.37481	9.633
4.35277	9.6299
4.33096	9.6289
4.30935	9.6426
4.28797	9.6484
4.26679	9.6594
4.24583	9.6699
4.22506	9.6655
4.2045	9.6709
4.18414	9.6797
4.16398	9.6953
4.14401	9.6914
4.12423	9.7036
4.10464	9.7212
4.08523	9.7309
4.066	9.729
4.04696	9.7239
4.02809	9.738
4.0094	9.747
3.99088	9.7446
3.97253	9.75
3.95435	9.7539
3.93634	9.7519
3.91848	9.7715
3.90079	9.7793
3.88326	9.781
3.86589	9.7834
3.84867	9.7832
3.8316	9.7954
3.81468	9.8003
3.79791	9.8115
3.78129	9.8135
3.76482	9.8164
3.74848	9.8183
3.73229	9.8369
3.71624	9.8408
3.70032	9.8325
3.68454	9.8305
3.6689	9.8291
3.65338	9.823
3.638	9.8388
3.62275	9.8374
3.60762	9.8344
3.59262	9.834
3.57775	9.8574
3.56299	9.8584
3.54836	9.8491
3.53385	9.8672
3.51945	9.9424
3.50517	10.0549
3.49101	9.9382
3.47696	9.9153
3.46303	9.9582
3.4492	10.0114
3.43549	10.0913
3.42188	10.2558
3.40838	10.0906
3.39499	9.9424
3.38171	9.9609
3.36852	9.948
3.35544	9.8838
3.34246	9.8637
3.32958	9.8496
3.3168	9.8332
3.30411	9.8371
3.29153	9.8315
3.27903	9.8242
3.26664	9.7981
3.25433	9.7978
3.24212	9.8049
3.23	9.7885
3.21797	9.7876
3.20603	9.7932
3.19418	9.7776
3.18241	9.7915
3.17074	9.7864
3.15914	9.7864
3.14763	9.7734
3.13621	9.7695
3.12487	9.7834
3.11361	9.7622
3.10243	9.7763
3.09133	9.7678
3.0803	9.7934
3.06936	9.7651
3.0585	9.7649
3.04771	9.7776
3.037	9.7759
3.02636	9.7756
3.0158	9.7739
3.00531	9.7265
2.99489	9.75
2.98454	9.751
2.97427	9.7385
2.96407	9.719
2.95393	9.716
2.94387	9.7187
2.93387	9.6633
2.92394	9.6916
2.91408	9.678
2.90429	9.6758
2.89456	9.6653
2.88489	9.6582
2.87529	9.6311
2.86576	9.6487
2.85628	9.6465
2.84687	9.6428
2.83752	9.6262
2.82823	9.6057
2.81901	9.5998
2.80984	9.6155
2.80073	9.6115
2.79168	9.6025
2.78269	9.5664
2.77376	9.5635
2.76488	9.5703
2.75606	9.5342
2.7473	9.5776
2.73859	9.5483
2.72994	9.5859
2.72134	9.5351
2.7128	9.5879
2.70431	9.5688
2.69587	9.5654
2.68748	9.5766
2.67915	9.5742
2.67087	9.5063
2.66264	9.5752
2.65446	9.5718
2.64633	9.562
2.63825	9.5771
2.63021	9.5034
2.62223	9.5566
2.6143	9.5254
2.60641	9.4785
2.59857	9.5654
2.59078	9.5337
2.58304	9.5049
2.57534	9.5449
2.56768	9.5312
2.56008	9.498
2.55251	9.498
2.54499	9.5224
2.53752	9.5332
2.53009	9.5161
2.5227	9.5273
2.51536	9.5254
2.50806	9.5454
2.5008	9.5239
2.49358	9.5429
2.4864	9.5263
2.47927	9.5644
2.47218	9.5434
2.46512	9.5215
2.45811	9.5547
2.45114	9.5625
2.4442	9.5068
2.43731	9.5527
2.43045	9.5786
2.42363	9.5395
2.41685	9.5415
2.41011	9.5903
2.40341	9.5844
2.39674	9.5688
2.39011	9.561
2.38352	9.6074
2.37696	9.5801
2.37044	9.625
2.36395	9.5996
2.35751	9.6035
2.35109	9.6372
2.34471	9.6328
2.33836	9.666
2.33205	9.6611
2.32578	9.7148
2.31953	9.6738
2.31332	9.6972
2.30714	9.7207
2.301	9.7617
2.29489	9.7666
2.28881	9.7636
2.28276	9.7763
2.27675	9.7607
2.27076	9.831
2.26481	9.834
2.25889	9.8603
2.253	9.8799
2.24714	9.8769
2.24131	9.8847
2.23551	9.9433
2.22974	9.9355
2.224	9.9297
2.21829	9.9629
2.21261	9.9258
2.20696	9.915
2.20134	9.9765
2.19574	9.9697
2.19018	10.0273
2.18464	10.0039
2.17913	10.0127
2.17365	10.0996
2.16819	10.1133
2.16277	10.082
2.15737	10.0752
2.15199	10.0605
2.14665	10.0605
2.14133	10.0869
2.13603	10.1377
2.13077	10.0859
2.12552	10.1621
2.12031	10.2011
2.11512	10.1103
2.10995	10.2226
2.10481	10.2148
2.0997	10.2265
2.09461	10.1875
2.08954	10.2597
2.0845	10.2695
2.07948	10.1963
