Name: Frost
Type: Frost, Snow and Ice
Class: Frost
Particle Size: 10 micrometers effective size.
Sample No.: Original filename FROST.SNW.
Owner: Dept. of Earth and Planetary Science, John Hopkins University
Wavelength Range: All
Origin: Collected at John Hopkins University IR Spectroscopy Lab.
Description: Frost.  The spectrum from 0.3 to 2.08 micrometers was modeled,
Measurement: Directional (10 Degree) Hemispherical Reflectance
X Units: Wavelength (micrometers)
Y Units: Reflectance (percent)
wavelength	value
0.3	98.5933
0.33	99.034
0.36	99.192
0.39	99.252
0.42	99.284
0.45	99.492
0.48	99.484
0.51	99.446
0.54	99.328
0.57	99.286
0.6	99.198
0.63	98.918
0.66	98.628
0.69	98.42
0.72	98.038
0.75	97.666
0.78	96.99
0.82	96.53
0.88	94.88
0.94	93.89
1	89.91
1.06	89.68
1.12	89.97
1.18	85
1.24	77.17
1.3	74.87
1.36	76.43
1.42	61.75
1.48	24.69
1.54	22.52
1.6	31.3
1.66	39.91
1.72	48.1
1.78	48.84
1.84	58.29
1.9	30.62
1.96	13.1
2.02	11.43
2.08	16.16
2.14	30.15
2.2	42.93
2.25	44.6273
2.28	43.189
2.31	40.578
2.34	37.595
2.37	35.425
2.4	33.9211
2.43	32.5887
2.46	31.2975
2.49	29.9278
2.52	28.7325
2.55	27.8229
2.58	26.5538
2.61	24.9675
2.64	23.6262
2.67	17.7886
2.7	13.2286
2.73	6.9257
2.76	2.3957
2.79	0.8171
2.82	0.445
2.85	0.3971
2.88	0.3371
2.91	0.4733
2.94	0.595
2.97	0.7083
3	0.83
3.03	1.052
3.06	1.304
3.09	1.382
3.12	1.265
3.15	1.23
3.18	1.168
3.21	1.104
3.24	1.014
3.27	1.028
3.3	1.094
3.33	1.164
3.36	1.424
3.39	1.736
3.42	2.286
3.45	3.0775
3.48	4.15
3.51	5.326
3.54	6.755
3.57	8.175
3.6	9.5025
3.63	10.6875
3.66	11.53
3.69	11.9433
3.72	11.96
3.75	11.565
3.78	10.9525
3.81	10.1275
3.84	9.37
3.87	8.5775
3.9	7.9033
3.93	7.32
3.96	6.7467
3.99	6.2067
4.02	5.78
4.05	5.4
4.08	5.02
4.11	4.6833
4.14	4.5067
4.17	4.2567
4.2	3.9667
4.23	3.7167
4.26	3.46
4.29	3.18
4.32	2.86
4.35	2.6667
4.38	2.43
4.41	2.28
4.44	2.155
4.47	2.1
4.5	2.11
4.53	2.195
4.56	2.32
4.59	2.55
4.62	2.87
4.65	3.1867
4.68	3.58
4.71	3.99
4.74	4.4
4.77	4.82
4.8	5.1533
4.83	5.515
4.86	5.85
4.89	6.135
4.92	6.4
4.95	6.6
4.98	6.7767
5.01	6.895
5.04	6.955
5.07	6.985
5.1	6.915
5.13	6.805
5.16	6.645
5.19	6.45
5.22	6.26
5.25	6.035
5.28	5.73
5.31	5.495
5.34	5.155
5.37	4.88
5.4	4.65
5.43	4.335
5.46	4.075
5.49	3.84
5.52	3.6
5.55	3.28
5.58	3.01
5.61	2.83
5.64	2.5
5.67	2.31
5.7	2.12
5.73	1.905
5.76	1.7
5.79	1.585
5.82	1.44
5.85	1.34
5.88	1.175
5.91	1.09
5.94	1.04
5.97	1.005
6	1
6.03	0.95
6.06	0.86
6.09	0.9
6.12	0.96
6.15	0.98
6.18	0.96
6.21	0.96
6.24	1
6.27	1.05
6.3	1.07
6.33	1.05
6.36	1.06
6.39	1.04
6.42	1.01
6.45	1.05
6.48	1.08
6.51	1.15
6.54	1.2
6.57	1.2
6.6	1.165
6.63	1.15
6.66	1.22
6.69	1.29
6.72	1.335
6.75	1.36
6.78	1.35
6.81	1.34
6.84	1.35
6.87	1.36
6.9	1.43
6.93	1.48
6.96	1.49
6.99	1.48
7.02	1.47
7.05	1.49
7.08	1.55
7.11	1.58
7.14	1.57
7.17	1.58
7.2	1.63
7.23	1.7
7.26	1.73
7.29	1.74
7.32	1.76
7.35	1.82
7.38	1.89
7.42	1.93
7.45	1.95
7.48	1.99
7.51	2.02
7.55	2.05
7.58	2.1
7.61	2.17
7.65	2.2
7.68	2.2
7.71	2.22
7.75	2.26
7.78	2.31
7.82	2.36
7.85	2.39
7.89	2.4
7.93	2.43
7.96	2.47
8	2.49
8.04	2.5
8.08	2.52
8.11	2.54
8.15	2.56
8.19	2.57
8.23	2.57
8.27	2.57
8.31	2.58
8.35	2.57
8.39	2.56
8.43	2.56
8.47	2.56
8.51	2.55
8.55	2.55
8.6	2.53
8.64	2.48
8.68	2.44
8.73	2.44
8.77	2.45
8.82	2.44
8.86	2.39
8.91	2.35
8.95	2.32
9	2.31
9.05	2.31
9.1	2.29
9.14	2.29
9.19	2.3
9.24	2.34
9.29	2.39
9.34	2.41
9.39	2.42
9.44	2.48
9.49	2.59
9.55	2.71
9.6	2.79
9.65	2.78
9.71	2.7
9.76	2.62
9.82	2.5
9.87	2.33
9.93	2.17
9.99	2
10.05	1.79
10.11	1.58
10.17	1.41
10.23	1.26
10.29	1.1
10.35	0.93
10.41	0.78
10.47	0.69
10.54	0.65
10.6	0.63
10.67	0.6
10.73	0.56
10.8	0.56
10.87	0.59
10.94	0.62
11.01	0.65
11.08	0.69
11.15	0.72
11.22	0.72
11.29	0.71
11.37	0.72
11.44	0.75
11.52	0.78
11.6	0.8
11.68	0.83
11.76	0.87
11.84	0.88
11.92	0.87
12	0.89
12.08	0.91
12.17	0.93
12.26	0.96
12.34	0.99
12.43	1
12.52	0.99
12.61	1.01
12.71	1.04
12.8	1.05
12.9	1.07
12.99	1.12
13.09	1.14
13.19	1.1
13.29	1.08
13.4	1.12
13.5	1.15
13.61	1.17
13.71	1.18
13.82	1.19
13.94	1.24
