Name: Magnetite Fe+2Fe2+3O4
Type: Mineral
Class: Oxides
Subclass: (Spinel Group)
Particle Size: Fine (0-74 micrometers)
Sample No.: magnet.1
Owner: JHU
Wavelength Range: IR
Origin: Santa Barbara, Minas Gerais, Brazil via the Smithsonian
Description: The sample was composed of two large (3 cm x 3 cm x 2
Measurement: Bidirectional reflectance
X Units: Wavelength (micrometers)
Y Units: Reflectance (percent)
wavelength	value
25.0442	4.5117
24.3388	4.3662
23.6719	4.3508
23.0407	4.2517
22.4422	4.2441
21.8741	4.1787
21.334	4.0742
20.8199	4.052
20.33	4.0461
19.8627	4.0154
19.4163	4.0337
18.9896	4.1301
18.5812	4.3242
18.19	4.7585
17.815	5.1894
17.4551	4.874
17.1094	4.3872
16.7772	4.0903
16.4576	3.9324
16.15	3.8323
15.8537	3.7605
15.568	3.7051
15.2925	3.6592
15.0265	3.6152
14.7697	3.571
14.5214	3.5273
14.2814	3.498
14.0492	3.4731
13.8244	3.4707
13.6067	3.4592
13.3957	3.4343
13.1912	3.4307
12.9929	3.3979
12.8004	3.3918
12.6135	3.375
12.432	3.366
12.2557	3.3403
12.0843	3.324
11.9176	3.2991
11.7555	3.2849
11.5977	3.2707
11.444	3.2683
11.2944	3.2534
11.1487	3.2473
11.0067	3.2524
10.8682	3.2349
10.7332	3.227
10.6015	3.2297
10.473	3.219
10.3476	3.2153
10.2251	3.2056
10.1056	3.2031
9.98873	3.1919
9.87458	3.1831
9.763	3.1904
9.65392	3.1782
9.54724	3.1684
9.44291	3.1606
9.34082	3.1511
9.24091	3.1348
9.14312	3.1291
9.04739	3.1133
8.95363	3.102
8.8618	3.0818
8.77183	3.0767
8.68368	3.0776
8.59727	3.062
8.51257	3.0554
8.42951	3.0478
8.34807	3.0381
8.26819	3.0344
8.18981	3.032
8.11292	3.0266
8.03745	3.0317
7.96337	3.0298
7.89064	3.0395
7.81924	3.0434
7.74911	3.0478
7.68023	3.0505
7.61256	3.0522
7.54608	3.0561
7.48074	3.0571
7.41653	3.0557
7.35341	3.0527
7.29136	3.0498
7.23034	3.0483
7.17033	3.0408
7.11132	3.0388
7.05327	3.0303
6.99616	3.0303
6.93996	3.0259
6.88467	3.0254
6.83024	3.0105
6.77667	3.0037
6.72393	3.0007
6.67201	2.9934
6.62089	2.9936
6.57054	2.9802
6.52095	2.9836
6.4721	2.9802
6.42398	2.9768
6.37657	2.9819
6.32986	2.9844
6.28382	2.9814
6.23845	2.9812
6.19373	2.9788
6.14965	2.9812
6.10619	2.9722
6.06334	2.9692
6.02109	2.9717
5.97942	2.9678
5.93832	2.9575
5.89778	2.9604
5.8578	2.9687
5.81835	2.9592
5.77943	2.9612
5.74103	2.96
5.70314	2.958
5.66574	2.9575
5.62883	2.958
5.5924	2.9519
5.55644	2.9497
5.52093	2.9451
5.48588	2.9414
5.45127	2.9355
5.41709	2.9287
5.38334	2.9263
5.35	2.9265
5.31708	2.9238
5.28456	2.9197
5.25243	2.915
5.2207	2.9111
5.18934	2.9087
5.15836	2.905
5.12775	2.9038
5.09749	2.9067
5.0676	2.9065
5.03805	2.9062
5.00884	2.9048
4.97998	2.9053
4.95144	2.9043
4.92322	2.9043
4.89533	2.9043
4.86775	2.9055
4.84048	2.9009
4.81351	2.9055
4.78684	2.9004
4.76047	2.8945
4.73439	2.8906
4.70859	2.8852
4.68306	2.8835
4.65782	2.8769
4.63284	2.8752
4.60814	2.8699
4.58369	2.8662
4.5595	2.8647
4.53557	2.8584
4.51188	2.8508
4.48845	2.8489
4.46525	2.8464
4.44229	2.8472
4.41957	2.8455
4.39708	2.8491
4.37481	2.8457
4.35277	2.8452
4.33096	2.8455
4.30935	2.8425
4.28797	2.8369
4.26679	2.8374
4.24583	2.8415
4.22506	2.8381
4.2045	2.8406
4.18414	2.835
4.16398	2.831
4.14401	2.8249
4.12423	2.8232
4.10464	2.8208
4.08523	2.8181
4.066	2.8144
4.04696	2.8081
4.02809	2.8096
4.0094	2.8096
3.99088	2.8035
3.97253	2.7964
3.95435	2.7956
3.93634	2.7959
3.91848	2.7939
3.90079	2.7915
3.88326	2.7888
3.86589	2.7805
3.84867	2.7786
3.8316	2.7837
3.81468	2.7751
3.79791	2.7749
3.78129	2.7734
3.76482	2.7683
3.74848	2.7664
3.73229	2.7707
3.71624	2.7651
3.70032	2.7637
3.68454	2.7654
3.6689	2.7595
3.65338	2.759
3.638	2.7556
3.62275	2.7515
3.60762	2.7507
3.59262	2.7456
3.57775	2.7471
3.56299	2.7446
3.54836	2.7432
3.53385	2.7366
3.51945	2.7356
3.50517	2.7356
3.49101	2.7353
3.47696	2.7231
3.46303	2.7248
3.4492	2.72
3.43549	2.719
3.42188	2.72
3.40838	2.7168
3.39499	2.7085
3.38171	2.7107
3.36852	2.7095
3.35544	2.7029
3.34246	2.7031
3.32958	2.7039
3.3168	2.6977
3.30411	2.6985
3.29153	2.6975
3.27903	2.6968
3.26664	2.6931
3.25433	2.6943
3.24212	2.6846
3.23	2.6853
3.21797	2.6804
3.20603	2.6807
3.19418	2.6787
3.18241	2.6794
3.17074	2.6765
3.15914	2.6741
3.14763	2.6738
3.13621	2.6626
3.12487	2.6636
3.11361	2.6609
3.10243	2.6636
3.09133	2.6536
3.0803	2.655
3.06936	2.6553
3.0585	2.6504
3.04771	2.6565
3.037	2.6497
3.02636	2.646
3.0158	2.6431
3.00531	2.6379
2.99489	2.6396
2.98454	2.6382
2.97427	2.6333
2.96407	2.6333
2.95393	2.6299
2.94387	2.6274
2.93387	2.6306
2.92394	2.6221
2.91408	2.6174
2.90429	2.6255
2.89456	2.6167
2.88489	2.6216
2.87529	2.6135
2.86576	2.6067
2.85628	2.6052
2.84687	2.6064
2.83752	2.6033
2.82823	2.6035
2.81901	2.602
2.80984	2.595
2.80073	2.5901
2.79168	2.5857
2.78269	2.5864
2.77376	2.5864
2.76488	2.5784
2.75606	2.5781
2.7473	2.5801
2.73859	2.5747
2.72994	2.5776
2.72134	2.5769
2.7128	2.5701
2.70431	2.5779
2.69587	2.5723
2.68748	2.5681
2.67915	2.5688
2.67087	2.5635
2.66264	2.562
2.65446	2.5635
2.64633	2.5608
2.63825	2.5574
2.63021	2.5481
2.62223	2.5532
2.6143	2.5466
2.60641	2.5439
2.59857	2.5432
2.59078	2.5552
2.58304	2.5442
2.57534	2.5298
2.56768	2.5359
2.56008	2.5403
2.55251	2.5283
2.54499	2.5264
2.53752	2.5249
2.53009	2.5247
2.5227	2.5193
2.51536	2.53
2.50806	2.5185
2.5008	2.5242
2.49358	2.5095
2.4864	2.5146
2.47927	2.5222
2.47218	2.5071
2.46512	2.5095
2.45811	2.5007
2.45114	2.4988
2.4442	2.4907
2.43731	2.499
2.43045	2.4902
2.42363	2.4819
2.41685	2.4897
2.41011	2.4831
2.40341	2.4951
2.39674	2.4812
2.39011	2.4707
2.38352	2.4665
2.37696	2.4748
2.37044	2.4683
2.36395	2.4687
2.35751	2.4563
2.35109	2.4641
2.34471	2.4548
2.33836	2.4465
2.33205	2.4448
2.32578	2.446
2.31953	2.4497
2.31332	2.4348
2.30714	2.4338
2.301	2.4377
2.29489	2.4482
2.28881	2.4324
2.28276	2.4272
2.27675	2.426
2.27076	2.4319
2.26481	2.4238
2.25889	2.4194
2.253	2.4289
2.24714	2.4265
2.24131	2.4075
2.23551	2.4285
2.22974	2.4094
2.224	2.4055
2.21829	2.3894
2.21261	2.4153
2.20696	2.4165
2.20134	2.4053
2.19574	2.3879
2.19018	2.3987
2.18464	2.3884
2.17913	2.3962
2.17365	2.4016
2.16819	2.4053
2.16277	2.3918
2.15737	2.3882
2.15199	2.3867
2.14665	2.3787
2.14133	2.3843
2.13603	2.3791
2.13077	2.386
2.12552	2.3804
2.12031	2.3921
2.11512	2.376
2.10995	2.3738
2.10481	2.3708
2.0997	2.3848
2.09461	2.3901
2.08954	2.3677
2.0845	2.3765
2.07948	2.3633
