Name: Pyrrhotite Fe(1-x)S
Type: Mineral
Class: Sulfides
Particle Size: Coarse  (75 - 250 micrometers)
Sample No.: pyroph.1
Owner: JHU
Wavelength Range: IR
Origin: Stoneham, Maine, USA via the Smithsonian (sample no. NMNH
Description: The sample consisted of two large fragments and many
Measurement: Bidirectional reflectance
X Units: Wavelength (micrometers)
Y Units: Reflectance (percent)
wavelength	value
25.0442	8.3078
24.3388	8.395
23.6719	8.4678
23.0407	8.4077
22.4422	8.2893
21.8741	8.2756
21.334	8.2795
20.8199	8.279
20.33	8.2387
19.8627	8.2273
19.4163	8.1894
18.9896	8.1728
18.5812	8.1501
18.19	8.1438
17.815	8.143
17.4551	8.0945
17.1094	8.0254
16.7772	7.9773
16.4576	7.935
16.15	7.8904
15.8537	7.8852
15.568	7.883
15.2925	7.853
15.0265	7.8506
14.7697	7.8662
14.5214	7.8584
14.2814	7.8486
14.0492	7.8679
13.8244	7.8298
13.6067	7.8208
13.3957	7.8252
13.1912	7.8345
12.9929	7.8227
12.8004	7.7929
12.6135	7.7671
12.432	7.749
12.2557	7.7187
12.0843	7.686
11.9176	7.6743
11.7555	7.6726
11.5977	7.6535
11.444	7.6892
11.2944	7.6335
11.1487	7.6072
11.0067	7.5964
10.8682	7.5959
10.7332	7.5752
10.6015	7.5596
10.473	7.5415
10.3476	7.5173
10.2251	7.479
10.1056	7.4551
9.98873	7.4187
9.87458	7.3825
9.763	7.3469
9.65392	7.3198
9.54724	7.2908
9.44291	7.2605
9.34082	7.2358
9.24091	7.2258
9.14312	7.2195
9.04739	7.1909
8.95363	7.1863
8.8618	7.1914
8.77183	7.1985
8.68368	7.2173
8.59727	7.2214
8.51257	7.2007
8.42951	7.199
8.34807	7.1982
8.26819	7.1977
8.18981	7.209
8.11292	7.2212
8.03745	7.2231
7.96337	7.2214
7.89064	7.2099
7.81924	7.1926
7.74911	7.1633
7.68023	7.1326
7.61256	7.1072
7.54608	7.0845
7.48074	7.0635
7.41653	7.0471
7.35341	7.0307
7.29136	7.0107
7.23034	7.0005
7.17033	6.9885
7.11132	6.9812
7.05327	6.9587
6.99616	6.9433
6.93996	6.9297
6.88467	6.9077
6.83024	6.9038
6.77667	6.9057
6.72393	6.8896
6.67201	6.8823
6.62089	6.8738
6.57054	6.8742
6.52095	6.8689
6.4721	6.8628
6.42398	6.8515
6.37657	6.8345
6.32986	6.8044
6.28382	6.78
6.23845	6.7612
6.19373	6.7422
6.14965	6.7217
6.10619	6.7129
6.06334	6.6977
6.02109	6.7048
5.97942	6.7119
5.93832	6.7024
5.89778	6.698
5.8578	6.7007
5.81835	6.6775
5.77943	6.6638
5.74103	6.6628
5.70314	6.6611
5.66574	6.6667
5.62883	6.6557
5.5924	6.6465
5.55644	6.6384
5.52093	6.6223
5.48588	6.6164
5.45127	6.6128
5.41709	6.6111
5.38334	6.6057
5.35	6.5996
5.31708	6.5937
5.28456	6.5937
5.25243	6.5825
5.2207	6.5715
5.18934	6.5632
5.15836	6.5486
5.12775	6.541
5.09749	6.5349
5.0676	6.5305
5.03805	6.5251
5.00884	6.5188
4.97998	6.5144
4.95144	6.5107
4.92322	6.5019
4.89533	6.5005
4.86775	6.4934
4.84048	6.4848
4.81351	6.477
4.78684	6.4787
4.76047	6.4663
4.73439	6.4629
4.70859	6.4595
4.68306	6.4477
4.65782	6.4431
4.63284	6.4365
4.60814	6.4302
4.58369	6.4226
4.5595	6.4148
4.53557	6.4045
4.51188	6.3972
4.48845	6.3952
4.46525	6.3857
4.44229	6.3852
4.41957	6.3813
4.39708	6.3777
4.37481	6.3657
4.35277	6.3547
4.33096	6.3428
4.30935	6.333
4.28797	6.3188
4.26679	6.3171
4.24583	6.303
4.22506	6.3
4.2045	6.2915
4.18414	6.2844
4.16398	6.2756
4.14401	6.261
4.12423	6.2483
4.10464	6.2363
4.08523	6.2273
4.066	6.2151
4.04696	6.2087
4.02809	6.1948
4.0094	6.1848
3.99088	6.1748
3.97253	6.1672
3.95435	6.157
3.93634	6.1538
3.91848	6.1528
3.90079	6.1428
3.88326	6.1333
3.86589	6.1216
3.84867	6.113
3.8316	6.1079
3.81468	6.0981
3.79791	6.0908
3.78129	6.0886
3.76482	6.0779
3.74848	6.0671
3.73229	6.0588
3.71624	6.0459
3.70032	6.0342
3.68454	6.021
3.6689	6.0137
3.65338	5.9995
3.638	5.9883
3.62275	5.9817
3.60762	5.9709
3.59262	5.9634
3.57775	5.9468
3.56299	5.9346
3.54836	5.9253
3.53385	5.9167
3.51945	5.896
3.50517	5.8813
3.49101	5.8828
3.47696	5.8813
3.46303	5.8635
3.4492	5.8633
3.43549	5.8391
3.42188	5.8345
3.40838	5.8345
3.39499	5.8298
3.38171	5.8125
3.36852	5.813
3.35544	5.7988
3.34246	5.7869
3.32958	5.7727
3.3168	5.7727
3.30411	5.7615
3.29153	5.7529
3.27903	5.7414
3.26664	5.7202
3.25433	5.7126
3.24212	5.6999
3.23	5.6831
3.21797	5.6789
3.20603	5.6609
3.19418	5.6587
3.18241	5.6516
3.17074	5.6357
3.15914	5.6333
3.14763	5.6098
3.13621	5.6064
3.12487	5.6006
3.11361	5.5923
3.10243	5.5874
3.09133	5.5762
3.0803	5.5759
3.06936	5.563
3.0585	5.5588
3.04771	5.5576
3.037	5.5459
3.02636	5.53
3.0158	5.5227
3.00531	5.5083
2.99489	5.5041
2.98454	5.501
2.97427	5.4839
2.96407	5.4712
2.95393	5.4595
2.94387	5.4519
2.93387	5.4419
2.92394	5.4333
2.91408	5.428
2.90429	5.4223
2.89456	5.4233
2.88489	5.4236
2.87529	5.4114
2.86576	5.4126
2.85628	5.4033
2.84687	5.3933
2.83752	5.3887
2.82823	5.3818
2.81901	5.3728
2.80984	5.3755
2.80073	5.3584
2.79168	5.3647
2.78269	5.3591
2.77376	5.3406
2.76488	5.3418
2.75606	5.3352
2.7473	5.3384
2.73859	5.3352
2.72994	5.3244
2.72134	5.312
2.7128	5.3044
2.70431	5.2898
2.69587	5.2751
2.68748	5.2837
2.67915	5.2605
2.67087	5.2576
2.66264	5.2388
2.65446	5.2361
2.64633	5.2346
2.63825	5.2278
2.63021	5.2134
2.62223	5.2099
2.6143	5.2031
2.60641	5.1882
2.59857	5.1875
2.59078	5.1863
2.58304	5.176
2.57534	5.1755
2.56768	5.1487
2.56008	5.1455
2.55251	5.1465
2.54499	5.1279
2.53752	5.123
2.53009	5.1162
2.5227	5.0998
2.51536	5.0884
2.50806	5.0976
2.5008	5.0874
2.49358	5.0901
2.4864	5.0715
2.47927	5.0696
2.47218	5.0583
2.46512	5.053
2.45811	5.0344
2.45114	5.0459
2.4442	5.0478
2.43731	5.0364
2.43045	5.0224
2.42363	4.9944
2.41685	5.0117
2.41011	5.0029
2.40341	4.9905
2.39674	4.9932
2.39011	4.97
2.38352	4.9641
2.37696	4.9802
2.37044	4.9651
2.36395	4.9751
2.35751	4.9631
2.35109	4.949
2.34471	4.9607
2.33836	4.9414
2.33205	4.9394
2.32578	4.9287
2.31953	4.9245
2.31332	4.9231
2.30714	4.9072
2.301	4.9216
2.29489	4.9248
2.28881	4.9121
2.28276	4.906
2.27675	4.8811
2.27076	4.8779
2.26481	4.8723
2.25889	4.8938
2.253	4.8796
2.24714	4.8772
2.24131	4.8469
2.23551	4.8762
2.22974	4.8599
2.224	4.8555
2.21829	4.8513
2.21261	4.853
2.20696	4.8401
2.20134	4.8323
2.19574	4.8374
2.19018	4.8198
2.18464	4.8196
2.17913	4.8381
2.17365	4.8279
2.16819	4.8174
2.16277	4.8284
2.15737	4.8179
2.15199	4.7995
2.14665	4.7891
2.14133	4.802
2.13603	4.7739
2.13077	4.7912
2.12552	4.792
2.12031	4.7798
2.11512	4.7839
2.10995	4.771
2.10481	4.7776
2.0997	4.7661
2.09461	4.7634
2.08954	4.7788
2.0845	4.7488
2.07948	4.7432
