Name: Alais
Type: Stony Meteorites
Class: Carbonaceous chondrite
Subclass: CI
Particle Size: 0-75 micrometers
Sample No.: 24
Owner: JHU
Origin: Meteorite seen to fall in France in 1806.  Museum National d'Historie
Description: None.
Measurement: Bidirectional reflectance
X Units: Wavelength (micrometers)
Y Units: Reflectance (percent)
wavelength	value
25.044	0.0994
24.339	0.3127
23.672	0.3059
23.041	0.3689
22.442	0.3743
21.874	0.3386
21.334	0.3071
20.82	0.3132
20.33	0.2424
19.863	0.2239
19.416	0.2285
18.99	0.1621
18.581	0.1934
18.19	0.2332
17.815	0.2158
17.455	0.2205
17.109	0.229
16.777	0.1985
16.458	0.1765
16.15	0.1785
15.854	0.1743
15.568	0.1746
15.292	0.1826
15.027	0.1892
14.77	0.1946
14.521	0.2051
14.281	0.1804
14.049	0.2192
13.824	0.2371
13.607	0.2554
13.396	0.282
13.191	0.3428
12.993	0.3667
12.8	0.3552
12.614	0.3896
12.432	0.4062
12.256	0.4373
12.084	0.4695
11.918	0.4814
11.755	0.5154
11.598	0.5244
11.444	0.4849
11.294	0.4761
11.149	0.4602
11.007	0.4521
10.868	0.3782
10.733	0.322
10.602	0.3025
10.473	0.2683
10.348	0.2461
10.225	0.2283
10.106	0.2227
9.989	0.2266
9.875	0.2175
9.763	0.2134
9.654	0.2085
9.547	0.1973
9.443	0.1682
9.341	0.1511
9.241	0.1418
9.143	0.1445
9.047	0.1597
8.954	0.1501
8.862	0.1646
8.772	0.1626
8.684	0.1768
8.597	0.1838
8.513	0.1914
8.43	0.209
8.348	0.2449
8.268	0.2927
8.19	0.3538
8.113	0.4275
8.037	0.5288
7.963	0.6282
7.891	0.7146
7.819	0.7737
7.749	0.8174
7.68	0.8464
7.613	0.8603
7.546	0.8667
7.481	0.8843
7.417	0.8901
7.353	0.8916
7.291	0.8933
7.23	0.886
7.17	0.8669
7.111	0.8484
7.053	0.8455
6.996	0.843
6.94	0.8289
6.885	0.8406
6.83	0.876
6.777	0.9336
6.724	0.9853
6.672	1.0083
6.621	1.0239
6.571	1.0107
6.521	0.9932
6.472	0.9668
6.424	0.9277
6.377	0.8899
6.33	0.834
6.284	0.7727
6.239	0.7156
6.194	0.6372
6.15	0.5649
6.106	0.5413
6.063	0.5466
6.021	0.5767
5.979	0.6431
5.938	0.7366
5.898	0.8687
5.858	0.9871
5.818	1.0837
5.779	1.1558
5.741	1.2202
5.703	1.2678
5.666	1.3027
5.629	1.3337
5.592	1.3601
5.556	1.3853
5.521	1.3972
5.486	1.4111
5.451	1.4404
5.417	1.4636
5.383	1.4858
5.35	1.4988
5.317	1.5032
5.285	1.519
5.252	1.5249
5.221	1.5315
5.189	1.5369
5.158	1.5439
5.128	1.5586
5.098	1.5662
5.068	1.5732
5.038	1.5749
5.009	1.5735
4.98	1.5764
4.951	1.5767
4.923	1.5762
4.895	1.5732
4.868	1.5708
4.84	1.574
4.814	1.5691
4.787	1.5679
4.761	1.5662
4.734	1.5642
4.709	1.5654
4.683	1.564
4.658	1.5698
4.633	1.5681
4.608	1.5669
4.584	1.5698
4.559	1.5786
4.536	1.5803
4.512	1.5727
4.488	1.5745
4.465	1.573
4.442	1.5759
4.42	1.5762
4.397	1.572
4.375	1.5779
4.353	1.5771
4.331	1.5786
4.309	1.5732
4.288	1.5749
4.267	1.5706
4.246	1.5754
4.225	1.5708
4.205	1.5771
4.184	1.5798
4.164	1.5767
4.144	1.5725
4.124	1.5749
4.105	1.5752
4.085	1.5752
4.066	1.5767
4.047	1.5732
4.028	1.5696
4.009	1.5676
3.991	1.5503
3.973	1.5312
3.954	1.5234
3.936	1.5186
3.918	1.519
3.901	1.5273
3.883	1.5215
3.866	1.5139
3.849	1.5132
3.832	1.5027
3.815	1.4907
3.798	1.4766
3.781	1.4685
3.765	1.467
3.748	1.4504
3.732	1.4446
3.716	1.4311
3.7	1.4172
3.684	1.3972
3.669	1.3813
3.653	1.365
3.638	1.3513
3.623	1.3347
3.608	1.3186
3.593	1.3018
3.578	1.2898
3.563	1.2622
3.548	1.2451
3.534	1.2195
3.519	1.1895
3.505	1.1475
3.491	1.1165
3.477	1.095
3.463	1.0811
3.449	1.0571
3.436	1.0212
3.422	0.9817
3.408	0.9617
3.395	0.9526
3.382	0.9326
3.369	0.926
3.355	0.9194
3.342	0.9116
3.33	0.8933
3.317	0.8645
3.304	0.8408
3.292	0.8291
3.279	0.8037
3.267	0.7788
3.254	0.7639
3.242	0.7412
3.23	0.7114
3.218	0.688
3.206	0.6702
3.194	0.644
3.182	0.6326
3.171	0.6116
3.159	0.5962
3.148	0.5752
3.136	0.5508
3.125	0.551
3.114	0.5347
3.102	0.5212
3.091	0.5237
3.08	0.5208
3.069	0.5044
3.059	0.4951
3.048	0.498
3.037	0.4939
3.026	0.4832
3.016	0.4783
3.005	0.4666
2.995	0.4541
2.985	0.4524
2.974	0.45
2.964	0.4497
2.954	0.4446
2.944	0.4436
2.934	0.4375
2.924	0.4402
2.914	0.439
2.904	0.4526
2.895	0.4543
2.885	0.4504
2.875	0.447
2.866	0.4607
2.856	0.4495
2.847	0.4644
2.837	0.4768
2.828	0.4761
2.819	0.4902
2.81	0.4966
2.801	0.5066
2.792	0.5198
2.783	0.522
2.774	0.5403
2.765	0.5515
2.756	0.5613
2.747	0.5972
2.739	0.604
2.73	0.6023
2.721	0.5691
2.713	0.5449
2.704	0.6526
2.696	0.894
2.688	1.1526
2.679	1.3061
2.671	1.3594
2.663	1.3909
2.655	1.4038
2.646	1.4224
2.638	1.4197
2.63	1.4265
2.622	1.4316
2.614	1.4265
2.606	1.4275
2.599	1.4321
2.591	1.4326
2.583	1.4421
2.575	1.438
2.568	1.4209
2.56	1.4282
2.553	1.418
2.545	1.4414
2.538	1.4436
2.53	1.4248
2.523	1.426
2.515	1.4287
2.508	1.4314
2.501	1.4436
2.494	1.4421
2.486	1.4365
2.479	1.4409
2.472	1.4409
2.465	1.429
2.458	1.4385
2.451	1.4333
2.444	1.4319
2.437	1.4233
2.43	1.4233
2.424	1.428
2.417	1.4351
2.41	1.4246
2.403	1.4319
2.397	1.4365
2.39	1.4387
2.384	1.4404
2.377	1.4424
2.37	1.4487
2.364	1.4453
2.357	1.4375
2.351	1.4482
2.345	1.4524
2.338	1.4424
2.332	1.4346
2.326	1.4604
2.32	1.4436
2.313	1.4375
2.307	1.4548
2.301	1.4456
2.295	1.4656
2.289	1.4644
2.283	1.4446
2.277	1.4536
2.271	1.4563
2.265	1.4592
2.259	1.4585
2.253	1.4553
2.247	1.4668
2.241	1.4644
2.236	1.4551
2.23	1.4556
2.224	1.4536
2.218	1.4665
2.213	1.4783
2.207	1.4697
2.201	1.4639
2.196	1.4805
2.19	1.4619
2.185	1.4612
2.179	1.4827
2.174	1.4851
2.168	1.4683
2.163	1.4739
2.157	1.4871
2.152	1.4807
2.147	1.4607
2.141	1.4827
2.136	1.49
2.131	1.47
2.126	1.4673
2.12	1.4673
2.115	1.4763
2.11	1.4727
2.105	1.4915
2.1	1.4846
2.095	1.4797
2.09	1.4644
2.084	1.477
2.079	1.459
