Name: Olivine (Fo11) (Fe+2,Mg)2SiO4
Type: Mineral
Class: Silicates
Subclass: Nesosilicates (Isolated tetrahedra); (Olivine Group)
Particle Size: Fine  (Less than 2  Micrometers)
Sample No.: olivine.10
Owner: JHU
Wavelength Range: IR
Origin: Twin Sisters Peak, Washington via Trude King #TSD
Description: Olivine from the Twin Sisters intrusive was optically
Measurement: Transmission
X Units: Wavelength (micrometers)
Y Units: Transmittance (percent)
wavelength	value
25.044	6.8281
24.339	3.1562
23.672	2.2422
23.041	5.7344
22.442	13.1953
21.874	17.8554
21.334	18.1582
20.82	24.0624
20.33	16.9609
19.863	4.7549
19.416	5.8828
18.99	7.1523
18.581	9.8203
18.19	14.0742
17.815	29.6562
17.455	44.286
17.109	48.1542
16.777	28.9423
16.458	17.3613
16.15	25.3339
15.854	42.8388
15.568	56.492
15.292	65.3407
15.027	70.8221
14.77	74.6229
14.521	77.1141
14.281	79.4143
14.049	80.535
13.824	80.6995
13.607	80.0862
13.396	77.9925
13.191	74.9046
12.993	70.4847
12.8	64.4666
12.614	57.0477
12.432	47.6469
12.256	36.7089
12.084	23.4399
11.918	12.7895
11.755	15.8535
11.598	7.9145
11.444	2.645
11.294	0.9707
11.149	1.5532
11.007	2.2974
10.868	3.3916
10.733	5.3711
10.602	7.5117
10.473	6.4155
10.348	11.4516
10.225	5.0015
10.106	4.166
9.989	5.4258
9.875	9.0361
9.763	15.3144
9.654	23.2563
9.547	31.0487
9.443	37.62
9.341	43.1259
9.241	47.4491
9.143	51.5531
9.047	56.2459
8.954	60.2645
8.862	63.6702
8.772	66.4788
8.684	68.973
8.597	71.2332
8.513	73.3133
8.43	75.3172
8.348	77.2393
8.268	79.0428
8.19	80.5743
8.113	82.0342
8.037	83.324
7.963	84.5794
7.891	85.49
7.819	86.3777
7.749	87.1834
7.68	87.9082
7.613	88.4444
7.546	89.0147
7.481	89.6316
7.417	90.1123
7.353	90.6299
7.291	91.1113
7.23	91.3865
7.17	91.7754
7.111	91.9639
7.053	92.051
6.996	92.3435
6.94	92.7734
6.885	93.3093
6.83	93.6963
6.777	94.116
6.724	94.5676
6.672	94.9827
6.621	95.2981
6.571	95.5706
6.521	95.7214
6.472	95.9392
6.424	96.0486
6.377	96.0449
6.33	95.9705
6.284	95.7776
6.238	95.7429
6.194	95.7156
6.15	95.3906
6.106	95.583
6.063	95.5615
6.021	94.8486
5.979	95.0134
5.938	95.7927
5.898	96.3972
5.858	96.7576
5.818	97.1121
5.779	97.3562
5.741	97.3455
5.703	96.9802
5.666	96.4424
5.629	95.989
5.592	96.3249
5.556	96.999
5.521	97.2783
5.486	97.2439
5.451	97.2058
5.417	97.3064
5.383	97.4612
5.35	97.5759
5.317	97.6846
5.285	97.6306
5.252	97.5867
5.221	97.5264
5.189	97.6484
5.158	97.6641
5.128	97.7263
5.097	97.7039
5.068	97.7097
5.038	97.665
5.009	97.5518
4.98	97.3533
4.951	97.2458
4.923	97.3171
4.895	97.4304
4.868	97.5437
4.84	97.5408
4.814	97.5754
4.787	97.4939
4.76	97.3899
4.734	97.2751
4.709	97.1999
4.683	97.1184
4.658	96.9216
4.633	96.8874
4.608	96.7537
4.584	96.6565
4.56	96.5735
4.536	96.4031
4.512	96.2561
4.488	96.1975
4.465	96.0281
4.442	95.8479
4.42	95.7971
4.397	95.6516
4.375	95.5369
4.353	95.4187
4.331	95.2605
4.309	95.0105
4.288	94.8123
4.267	94.7249
4.246	94.5886
4.225	94.3577
4.205	94.426
4.184	94.3562
4.164	94.1834
4.144	94.0769
4.124	93.9089
4.105	93.7332
4.085	93.6414
4.066	93.5369
4.047	93.3308
4.028	93.1467
4.009	93.0393
3.991	92.9099
3.973	92.7146
3.954	92.6199
3.936	92.4363
3.918	92.2307
3.901	92.1189
3.883	91.9299
3.866	91.7756
3.849	91.6428
3.832	91.4514
3.815	91.2566
3.798	91.0925
3.781	90.9358
3.765	90.7341
3.748	90.5647
3.732	90.4397
3.716	90.2078
3.7	90.03
3.685	89.7986
3.669	89.6389
3.653	89.5042
3.638	89.3357
3.623	89.1599
3.608	88.9553
3.593	88.719
3.578	88.5496
3.563	88.3377
3.548	88.1756
3.534	87.8889
3.519	87.7132
3.505	87.3338
3.491	87.2888
3.477	87.1209
3.463	86.8772
3.449	86.617
3.435	86.3909
3.422	86.0476
3.408	85.9256
3.395	85.8318
3.382	85.7464
3.369	85.6741
3.355	85.428
3.342	85.3064
3.33	85.1057
3.317	84.8421
3.304	84.7185
3.292	84.5174
3.279	84.3123
3.267	84.0935
3.254	83.9178
3.242	83.6707
3.23	83.4851
3.218	83.2508
3.206	83.0545
3.194	82.7889
3.182	82.5115
3.171	82.2791
3.159	81.9793
3.148	81.7947
3.136	81.4353
3.125	81.2449
3.114	81.0857
3.102	80.7557
3.091	80.4529
3.08	80.1775
3.069	79.9978
3.058	79.7879
3.048	79.5096
3.037	79.2576
3.026	79.0555
3.016	78.7039
3.005	78.4471
2.995	78.2352
2.985	78.1912
2.974	77.8768
2.964	77.7732
2.954	77.4744
2.944	77.3553
2.934	77.2469
2.924	77.0623
2.914	76.9842
2.904	76.9861
2.895	76.8123
2.885	76.7713
2.875	76.6414
2.866	76.5164
2.856	76.3992
2.847	76.449
2.838	76.4842
2.828	76.3924
2.819	76.41
2.81	76.4617
2.801	76.3289
2.792	76.3494
2.783	76.2859
2.774	76.2693
2.765	76.2391
2.756	76.2557
2.747	76.0779
2.739	75.9764
2.73	75.9334
2.721	75.2713
2.713	74.2772
2.704	75.0506
2.696	76.7508
2.687	77.3904
2.679	77.3875
2.671	77.367
2.663	77.0828
2.654	76.8748
2.646	76.6893
2.638	76.7107
2.63	76.5818
2.622	76.451
2.614	76.2771
2.606	76.0896
2.599	76.0271
2.591	75.8064
2.583	75.7928
2.575	75.5545
2.568	75.2635
2.56	75.365
2.553	75.0799
2.545	74.8397
2.538	74.8201
2.53	74.6307
2.523	74.5076
2.515	74.3514
2.508	74.3826
2.501	74.1287
2.494	73.9529
2.486	73.8514
2.479	73.6131
2.472	73.5584
2.465	73.4022
2.458	73.2186
2.451	73.0897
2.444	73.0272
2.437	72.8006
2.43	72.7049
2.424	72.7127
2.417	72.3924
2.41	72.5018
2.403	72.1561
2.397	72.0545
2.39	71.9256
2.384	71.7459
2.377	71.7108
2.37	71.4803
2.364	71.4783
2.358	71.1424
2.351	71.1951
2.345	71.1111
2.338	70.7908
2.332	70.7361
2.326	70.5467
2.32	70.4158
2.313	70.3514
2.307	70.3162
2.301	70.2752
2.295	69.8826
2.289	69.8611
2.283	69.7029
2.277	69.617
2.271	69.5311
2.265	69.324
2.259	69.3162
2.253	69.0936
2.247	68.7967
2.241	68.8944
2.236	68.9686
2.23	68.7537
2.224	68.5115
2.218	68.5037
2.213	68.2576
2.207	68.1326
2.201	68.1248
2.196	68.0037
2.19	67.8826
2.185	67.8514
2.179	67.6795
2.174	67.3006
2.168	67.285
2.163	67.4881
2.157	67.1248
2.152	66.8592
2.147	66.5545
2.141	66.8045
2.136	66.5545
2.131	66.578
2.126	66.4725
2.12	66.3905
2.115	66.2498
2.11	66.0037
2.105	65.8826
2.1	65.7928
2.095	65.6287
2.09	65.5233
2.085	65.7733
2.079	65.2655
