Name: Shale (Calcareous)
Type: Rocks
Class: Sedimentary
Subclass: Shale
Particle Size: 0 - 75 Micrometers
Sample No.: shale.3
Owner: JHU
Wavelength Range: All
Origin: Sample No. 383,  The Hunt and Salisbury Collection at the U.S.
Description: Sample consists of a brownish fine-grained to
Measurement: Directional (10 Degree) Hemispherical Reflectance
X Units: Wavelength (micrometers)
Y Units: Reflectance (percent)
wavelength	value
14.983	9.237
14.645	9.8792
14.321	8.0773
14.011	2.0189
13.715	9.9259
13.43	12.231
13.158	11.901
12.896	7.8774
12.644	7.7252
12.402	7.6165
12.169	12.73
11.945	13.9
11.729	12.399
11.52	6.5475
11.319	3.8158
11.125	10.888
10.937	8.7591
10.755	8.918
10.58	8.8635
10.41	7.7408
10.245	5.7319
10.086	4.2729
9.931	3.6036
9.781	3.3232
9.636	3.3924
9.495	3.7306
9.358	4.4713
9.225	5.0709
9.095	5.1754
8.969	5.1069
8.847	5.5375
8.727	6.7135
8.612	7.0261
8.499	8.1754
8.389	10.564
8.281	14.539
8.177	18.103
8.075	18.603
7.976	19.6
7.879	18.745
7.784	18.193
7.692	17.026
7.601	14.157
7.513	13.058
7.427	11.294
7.343	8.5983
7.261	5.5858
7.18	3.8094
7.102	3.6455
7.025	3.3209
6.949	3.0561
6.875	2.9874
6.803	3.0549
6.733	3.2574
6.663	3.6422
6.596	4.409
6.529	5.5043
6.464	7.072
6.4	7.7898
6.338	5.8283
6.276	4.6975
6.216	4.4948
6.157	4.3025
6.099	4.6811
6.042	5.4082
5.986	6.6936
5.931	7.7219
5.878	9.1643
5.825	9.8073
5.773	9.8605
5.722	10.962
5.672	13.046
5.623	12.669
5.574	2.4326
5.527	11.296
5.48	21.011
5.434	26.716
5.389	28.057
5.345	27.984
5.301	30.648
5.258	34.653
5.215	39.197
5.174	40.948
5.133	41.551
5.093	39.75
5.053	41.847
5.014	42.04
4.975	43.635
4.937	45.863
4.9	48.237
4.863	50.239
4.827	51.041
4.791	51.396
4.756	50.703
4.721	47.094
4.687	39.363
4.654	39.718
4.62	46.547
4.588	48.933
4.556	49.562
4.524	49.783
4.492	50.359
4.461	52.154
4.431	53.853
4.401	54.932
4.371	55.46
4.342	54.748
4.313	54.451
4.284	53.216
4.256	53.014
4.229	54.436
4.201	54.4
4.174	53.546
4.147	52.082
4.121	49.54
4.095	46.213
4.069	41.114
4.044	31.446
4.019	19.209
3.994	9.2541
3.97	7.2186
3.945	12.649
3.921	17.875
3.898	19.49
3.875	20.473
3.852	21.56
3.829	26.044
3.806	35.465
3.784	47.477
3.762	51.489
3.74	52.944
3.719	53.835
3.698	53.961
3.677	53.757
3.656	53.162
3.636	52.199
3.615	50.96
3.595	48.743
3.575	44.286
3.556	41.824
3.536	36.253
3.517	24.193
3.498	18.142
3.479	14.556
3.461	20.751
3.442	23.154
3.424	23.327
3.406	22.936
3.388	22.097
3.371	21.296
3.353	18.436
3.336	28.779
3.319	35.655
3.302	37.612
3.285	38.475
3.269	38.742
3.252	38.775
3.236	38.554
3.22	38.073
3.204	37.413
3.188	36.631
3.173	35.654
3.157	34.373
3.142	33.463
3.127	32.699
3.112	31.54
3.097	30.891
3.082	30.47
3.067	30.03
3.053	29.53
3.039	29.135
3.025	28.72
3.011	28.415
2.997	28.254
2.983	28.123
2.969	27.992
2.956	27.883
2.942	27.816
2.929	27.931
2.916	28.2
2.903	28.523
2.89	29.031
2.877	29.444
2.864	29.765
2.852	29.918
2.839	29.769
2.827	29.396
2.814	28.763
2.802	27.833
2.79	26.095
2.778	23.434
2.766	21.558
2.755	21.536
2.743	24.29
2.731	29.428
2.72	37.63
2.708	46.632
2.697	52.696
2.686	59.977
2.675	62.755
2.664	63.817
2.653	65.396
2.642	65.997
2.632	65.575
2.621	65.719
2.61	66.043
2.6	65.956
2.59	65.779
2.579	65.751
2.569	65.473
2.559	64.331
2.549	61.839
2.539	59.524
2.529	60.1
2.519	61.787
2.509	62.594
2.5	62.922
2.49	63.316
2.481	63.97
2.471	64.909
2.462	65.727
2.452	66.26
2.443	66.649
2.434	67.107
2.425	67.459
2.416	67.783
2.407	67.991
2.398	68.061
2.389	68.165
2.38	68
2.372	67.79
2.363	67.105
2.354	65.904
2.346	64.859
2.337	64.698
2.329	65.359
2.321	66.181
2.312	66.719
2.304	67.003
2.296	67.296
2.288	67.666
2.28	68.031
2.272	68.318
2.264	68.523
2.256	68.612
2.248	68.721
2.24	68.701
2.233	68.703
2.225	68.531
2.217	68.45
2.21	68.524
2.202	68.602
2.195	68.816
2.187	69.026
2.18	69.29
2.173	69.369
2.166	69.466
2.158	69.469
2.151	69.472
2.144	69.647
2.137	69.591
2.13	69.639
2.123	69.675
2.116	69.662
2.109	69.608
2.102	69.619
2.095	69.627
2.089	69.743
2.082	69.828
2.06	69.738
2.028	69.254
1.996	67.361
1.964	66.474
1.932	64.894
1.9	66.732
1.868	65.89
1.836	67.331
1.804	67.421
1.772	66.158
1.74	66.048
1.708	65.783
1.676	65.409
1.644	64.905
1.612	64.396
1.58	64.488
1.548	64.239
1.516	63.625
1.484	62.645
1.452	61.882
1.42	61.367
1.388	61.644
1.356	60.204
1.324	59.72
1.292	59.238
1.26	59.067
1.228	58.978
1.196	57.754
1.164	56.452
1.132	56.597
1.1	55.838
1.068	55.805
1.036	54.832
1.004	54.292
0.972	53.806
0.94	53.487
0.908	52.822
0.876	52.702
0.844	52.502
0.812	52.644
0.795	52.327
0.787	51.937
0.779	52.123
0.771	51.307
0.763	50.917
0.755	50.82
0.747	50.614
0.739	50.33
0.731	49.973
0.723	49.811
0.715	49.39
0.707	49.302
0.699	48.957
0.691	49.152
0.683	49.087
0.675	48.385
0.667	48.396
0.659	47.904
0.651	48.115
0.643	47.4
0.635	47.3
0.627	46.825
0.619	46.739
0.611	45.915
0.603	45.458
0.595	45.676
0.587	45.34
0.579	44.909
0.571	44.623
0.563	43.913
0.555	43.212
0.547	42.804
0.539	42.409
0.531	42.167
0.523	41.4
0.515	40.968
0.507	40.379
0.499	39.992
0.491	39.26
0.483	38.669
0.475	38.049
0.467	37.395
0.459	36.306
0.451	35.995
0.443	35.09
0.435	34.567
0.427	34.246
0.419	33.353
0.411	32.838
0.403	31.92
