Name: Rhodonite (Mn+2,Fe+2,Mg,Ca)SiO3
Type: Mineral
Class: Silicates
Subclass: Inosilicates (chain silicates); (Pyroxenoid Group)
Particle Size: Fine  (0 - 74 Micrometers)
Sample No.: rhodon.1
Owner: JHU
Wavelength Range: IR
Origin: Franklin, New Jersey via the Smithsonian (sample no. NMNH
Description: The hand sample was composed of two fragments, each
Measurement: Bidirectional reflectance
X Units: Wavelength (micrometers)
Y Units: Reflectance (percent)
wavelength	value
25.0442	3.7549
24.3388	3.96
23.6719	4.1963
23.0407	4.6946
22.4422	5.1858
21.8741	5.6377
21.334	5.8909
20.8199	5.7107
20.33	5.0696
19.8627	4.769
19.4163	5.1055
18.9896	5.0976
18.5812	3.9028
18.19	2.4871
17.815	3.4871
17.4551	4.0068
17.1094	4.102
16.7772	3.5703
16.4576	3.0781
16.15	3.126
15.8537	2.9241
15.568	2.6594
15.2925	2.9158
15.0265	2.9053
14.7697	2.4687
14.5214	2.7226
14.2814	2.7915
14.0492	3.0383
13.8244	2.8457
13.6067	3.4477
13.3957	4.5544
13.1912	4.9028
12.9929	4.9419
12.8004	4.8213
12.6135	4.6973
12.432	4.5122
12.2557	4.3393
12.0843	4.0383
11.9176	3.7761
11.7555	3.4883
11.5977	3.3208
11.444	3.2419
11.2944	3.2212
11.1487	3.8921
11.0067	4.0176
10.8682	3.8037
10.7332	3.6074
10.6015	3.6553
10.473	4.8205
10.3476	4.1704
10.2251	4.0146
10.1056	4.2036
9.98873	3.7834
9.87458	4.1113
9.763	4.2451
9.65392	3.7759
9.54724	3.071
9.44291	4.1089
9.34082	4.3474
9.24091	4.2444
9.14312	4.458
9.04739	5.1809
8.95363	6.0198
8.8618	7.126
8.77183	6.0852
8.68368	3.9363
8.59727	2.1035
8.51257	1.4333
8.42951	1.7261
8.34807	2.2727
8.26819	2.908
8.18981	3.5366
8.11292	4.041
8.03745	4.4184
7.96337	4.7334
7.89064	5.0093
7.81924	5.2512
7.74911	5.6316
7.68023	6.0683
7.61256	6.54
7.54608	6.9463
7.48074	7.1789
7.41653	7.4382
7.35341	7.6626
7.29136	7.8489
7.23034	8.0581
7.17033	8.32
7.11132	8.5849
7.05327	8.7805
6.99616	8.9106
6.93996	8.9514
6.88467	9.0588
6.83024	9.2285
6.77667	9.4309
6.72393	9.5442
6.67201	9.5766
6.62089	9.5412
6.57054	9.3767
6.52095	9.0937
6.4721	8.8413
6.42398	8.4446
6.37657	8.0859
6.32986	7.749
6.28382	7.7475
6.23845	7.9619
6.19373	8.1365
6.14965	8.1875
6.10619	8.2991
6.06334	8.251
6.02109	8.1672
5.97942	8.0954
5.93832	7.9038
5.89778	7.7949
5.8578	8.3701
5.81835	8.9914
5.77943	9.1985
5.74103	9.0461
5.70314	8.8254
5.66574	8.7475
5.62883	8.862
5.5924	9.029
5.55644	9.3354
5.52093	9.8611
5.48588	10.3281
5.45127	10.676
5.41709	10.6606
5.38334	10.2976
5.35	9.8681
5.31708	9.4946
5.28456	9.3396
5.25243	9.2226
5.2207	9.1721
5.18934	9.1474
5.15836	9.2102
5.12775	9.3366
5.09749	9.5764
5.0676	10.0451
5.03805	10.3628
5.00884	10.573
4.97998	11.0327
4.95144	11.3896
4.92322	11.6174
4.89533	11.7993
4.86775	12.0132
4.84048	12.1135
4.81351	12.2903
4.78684	12.5559
4.76047	12.955
4.73439	13.4048
4.70859	13.7993
4.68306	14.228
4.65782	14.6613
4.63284	15.1352
4.60814	15.4314
4.58369	15.7331
4.5595	15.9658
4.53557	16.2148
4.51188	16.3828
4.48845	16.469
4.46525	16.5063
4.44229	16.5122
4.41957	16.528
4.39708	16.5434
4.37481	16.5432
4.35277	16.5341
4.33096	16.5288
4.30935	16.518
4.28797	16.5305
4.26679	16.5673
4.24583	16.601
4.22506	16.6369
4.2045	16.6606
4.18414	16.684
4.16398	16.6975
4.14401	16.7099
4.12423	16.7304
4.10464	16.7739
4.08523	16.8166
4.066	16.8877
4.04696	16.9528
4.02809	17.0336
4.0094	17.1335
3.99088	17.2358
3.97253	17.3501
3.95435	17.4577
3.93634	17.5634
3.91848	17.6682
3.90079	17.7519
3.88326	17.8024
3.86589	17.8498
3.84867	17.8884
3.8316	17.9138
3.81468	17.9533
3.79791	17.9689
3.78129	17.9841
3.76482	17.9628
3.74848	17.9333
3.73229	17.9023
3.71624	17.8398
3.70032	17.7673
3.68454	17.7023
3.6689	17.6015
3.65338	17.541
3.638	17.4621
3.62275	17.3772
3.60762	17.3039
3.59262	17.2363
3.57775	17.1623
3.56299	17.0961
3.54836	17.0295
3.53385	16.9677
3.51945	16.8779
3.50517	16.6247
3.49101	16.6884
3.47696	16.7565
3.46303	16.7658
3.4492	16.6997
3.43549	16.5969
3.42188	16.3056
3.40838	16.3383
3.39499	16.622
3.38171	16.6545
3.36852	16.7226
3.35544	16.8901
3.34246	16.9304
3.32958	16.9638
3.3168	16.9714
3.30411	16.9572
3.29153	16.9287
3.27903	16.8776
3.26664	16.8437
3.25433	16.8095
3.24212	16.7595
3.23	16.6865
3.21797	16.6084
3.20603	16.5302
3.19418	16.437
3.18241	16.3437
3.17074	16.2194
3.15914	16.0971
3.14763	15.9751
3.13621	15.8596
3.12487	15.7719
3.11361	15.6945
3.10243	15.6301
3.09133	15.5778
3.0803	15.5493
3.06936	15.5197
3.0585	15.4589
3.04771	15.4589
3.037	15.4052
3.02636	15.3493
3.0158	15.281
3.00531	15.1958
2.99489	15.1132
2.98454	15.0415
2.97427	14.9353
2.96407	14.8628
2.95393	14.8422
2.94387	14.8608
2.93387	14.8466
2.92394	14.8374
2.91408	14.8061
2.90429	14.7319
2.89456	14.685
2.88489	14.7002
2.87529	14.6928
2.86576	14.7546
2.85628	15.021
2.84687	15.352
2.83752	15.623
2.82823	15.8232
2.81901	16.0141
2.80984	16.144
2.80073	16.2207
2.79168	16.5156
2.78269	16.7299
2.77376	16.4502
2.76488	16.4189
2.75606	16.3794
2.7473	15.499
2.73859	18.2617
2.72994	19.1215
2.72134	19.5854
2.7128	19.8881
2.70431	20.0703
2.69587	20.3022
2.68748	20.458
2.67915	20.5136
2.67087	20.5795
2.66264	20.6489
2.65446	20.676
2.64633	20.7014
2.63825	20.6955
2.63021	20.6572
2.62223	20.6867
2.6143	20.6831
2.60641	20.6867
2.59857	20.6691
2.59078	20.7102
2.58304	20.6813
2.57534	20.676
2.56768	20.6359
2.56008	20.6271
2.55251	20.6269
2.54499	20.6271
2.53752	20.6008
2.53009	20.5971
2.5227	20.5556
2.51536	20.5805
2.50806	20.5556
2.5008	20.5346
2.49358	20.5187
2.4864	20.5139
2.47927	20.5422
2.47218	20.5148
2.46512	20.465
2.45811	20.4809
2.45114	20.4396
2.4442	20.425
2.43731	20.4228
2.43045	20.4052
2.42363	20.4103
2.41685	20.414
2.41011	20.4423
2.40341	20.3603
2.39674	20.331
2.39011	20.333
2.38352	20.3244
2.37696	20.3061
2.37044	20.3342
2.36395	20.3549
2.35751	20.3554
2.35109	20.3615
2.34471	20.3049
2.33836	20.2822
2.33205	20.2421
2.32578	20.2678
2.31953	20.2922
2.31332	20.2717
2.30714	20.2246
2.301	20.2827
2.29489	20.2607
2.28881	20.2783
2.28276	20.2309
2.27675	20.2309
2.27076	20.2314
2.26481	20.249
2.25889	20.2719
2.253	20.2641
2.24714	20.3144
2.24131	20.2929
2.23551	20.3393
2.22974	20.3085
2.224	20.3398
2.21829	20.3193
2.21261	20.3637
2.20696	20.2949
2.20134	20.3105
2.19574	20.3403
2.19018	20.3676
2.18464	20.3696
2.17913	20.3442
2.17365	20.4296
2.16819	20.4414
2.16277	20.5156
2.15737	20.4951
2.15199	20.4575
2.14665	20.4931
2.14133	20.4492
2.13603	20.4687
2.13077	20.6162
2.12552	20.6118
2.12031	20.5957
2.11512	20.6328
2.10995	20.6035
2.10481	20.6777
2.0997	20.6215
2.09461	20.7402
2.08954	20.7856
2.0845	20.7744
2.07948	20.7778
