Name: Cordierite Mg2Al4Si5O18
Type: Mineral
Class: Silicates
Subclass: Cyclosilicates (Ring Silicates)
Particle Size: Coarse  (74-250 Micrometers)
Sample No.: cordier.2
Owner: JHU
Wavelength Range: IR
Origin: Sample from Orijarvi, Finland via the Smithsonian  (sample
Description: The sample consists of three pieces, each about 2 cm x 4
Measurement: Bidirectional reflectance
X Units: Wavelength (micrometers)
Y Units: Reflectance (percent)
wavelength	value
25.0442	7.937
24.3388	8.456
23.6719	7.8852
23.0407	4.4819
22.4422	5.5998
21.8741	5.468
21.334	5.2129
20.8199	6.4143
20.33	6.2431
19.8627	4.416
19.4163	2.2891
18.9896	1.762
18.5812	2.1396
18.19	2.4448
17.815	2.9775
17.4551	3.0244
17.1094	3.3921
16.7772	2.4993
16.4576	2.2805
16.15	2.5835
15.8537	2.2212
15.568	2.1301
15.2925	2.2676
15.0265	2.4145
14.7697	2.5264
14.5214	2.2864
14.2814	2.4409
14.0492	2.4646
13.8244	2.6272
13.6067	2.8613
13.3957	3.2314
13.1912	3.5803
12.9929	4.8511
12.8004	4.5002
12.6135	3.1672
12.432	1.8186
12.2557	1.9311
12.0843	2.1248
11.9176	2.3237
11.7555	2.5222
11.5977	2.7136
11.444	2.9534
11.2944	3.2842
11.1487	3.8774
11.0067	4.5012
10.8682	3.8867
10.7332	4.1306
10.6015	6.0386
10.473	8.2297
10.3476	9.3716
10.2251	9.4404
10.1056	9.0288
9.98873	6.3928
9.87458	4.7483
9.763	4.6457
9.65392	4.3733
9.54724	4.291
9.44291	4.2524
9.34082	3.9719
9.24091	3.6064
9.14312	3.2573
9.04739	3.0408
8.95363	3.0102
8.8618	3.2063
8.77183	3.6172
8.68368	3.1497
8.59727	3.9365
8.51257	4.9521
8.42951	5.9736
8.34807	6.4997
8.26819	7.0805
8.18981	7.4214
8.11292	6.6806
8.03745	4.9753
7.96337	3.5022
7.89064	2.3325
7.81924	1.3286
7.74911	0.6655
7.68023	0.5334
7.61256	0.5974
7.54608	0.677
7.48074	0.7598
7.41653	0.8242
7.35341	0.8667
7.29136	0.9104
7.23034	0.9514
7.17033	0.9907
7.11132	1.0415
7.05327	1.0676
6.99616	1.1001
6.93996	1.1245
6.88467	1.1311
6.83024	1.1062
6.77667	1.124
6.72393	1.1592
6.67201	1.1855
6.62089	1.217
6.57054	1.2573
6.52095	1.2949
6.4721	1.2444
6.42398	1.2046
6.37657	1.1653
6.32986	1.2046
6.28382	1.2144
6.23845	1.1992
6.19373	1.2424
6.14965	1.1724
6.10619	1.1321
6.06334	1.2217
6.02109	1.312
5.97942	1.3809
5.93832	1.4219
5.89778	1.4485
5.8578	1.4895
5.81835	1.4983
5.77943	1.5342
5.74103	1.595
5.70314	1.6743
5.66574	1.7305
5.62883	1.8069
5.5924	1.8982
5.55644	1.9431
5.52093	1.9578
5.48588	1.9092
5.45127	1.8076
5.41709	1.751
5.38334	1.6648
5.35	1.5676
5.31708	1.5466
5.28456	1.5579
5.25243	1.5832
5.2207	1.6428
5.18934	1.7488
5.15836	1.9414
5.12775	2.1995
5.09749	2.4397
5.0676	2.7158
5.03805	3.0381
5.00884	3.2561
4.97998	3.4255
4.95144	3.8149
4.92322	4.1333
4.89533	4.385
4.86775	4.5784
4.84048	4.7395
4.81351	4.8357
4.78684	4.8943
4.76047	4.9578
4.73439	5.0954
4.70859	5.2898
4.68306	5.3603
4.65782	5.5168
4.63284	5.5959
4.60814	5.6255
4.58369	5.7139
4.5595	5.9035
4.53557	6.112
4.51188	6.1816
4.48845	6.0388
4.46525	5.6421
4.44229	5.7641
4.41957	5.9045
4.39708	5.8545
4.37481	5.2117
4.35277	5.1528
4.33096	3.8652
4.30935	4.7749
4.28797	3.5574
4.26679	2.5679
4.24583	3.0351
4.22506	5.6531
4.2045	5.3091
4.18414	3.9902
4.16398	6.499
4.14401	7.3767
4.12423	7.5622
4.10464	7.5063
4.08523	7.5012
4.066	7.4067
4.04696	7.78
4.02809	7.9201
4.0094	8.0032
3.99088	8.0515
3.97253	8.0774
3.95435	8.1147
3.93634	8.1338
3.91848	8.1577
3.90079	8.1802
3.88326	8.1731
3.86589	8.1589
3.84867	8.1172
3.8316	8.0781
3.81468	8.0595
3.79791	8.1123
3.78129	8.1013
3.76482	8.0779
3.74848	8.0356
3.73229	7.9836
3.71624	7.9485
3.70032	7.8799
3.68454	7.8247
3.6689	7.7868
3.65338	7.7397
3.638	7.6887
3.62275	7.6203
3.60762	7.5649
3.59262	7.4848
3.57775	7.3984
3.56299	7.3056
3.54836	7.2263
3.53385	7.1618
3.51945	7.071
3.50517	6.9697
3.49101	6.8762
3.47696	6.8013
3.46303	6.7261
3.4492	6.6355
3.43549	6.5415
3.42188	6.4248
3.40838	6.334
3.39499	6.2488
3.38171	6.1318
3.36852	6.0237
3.35544	5.9089
3.34246	5.7939
3.32958	5.685
3.3168	5.5615
3.30411	5.4424
3.29153	5.3347
3.27903	5.2182
3.26664	5.0911
3.25433	4.9958
3.24212	4.8782
3.23	4.7568
3.21797	4.6103
3.20603	4.4619
3.19418	4.3215
3.18241	4.1853
3.17074	4.0276
3.15914	3.8935
3.14763	3.7729
3.13621	3.6335
3.12487	3.5146
3.11361	3.387
3.10243	3.2383
3.09133	3.0517
3.0803	2.9167
3.06936	2.8994
3.0585	2.8577
3.04771	2.7927
3.037	2.7207
3.02636	2.6377
3.0158	2.5503
3.00531	2.4905
2.99489	2.4128
2.98454	2.3486
2.97427	2.2956
2.96407	2.2158
2.95393	2.1704
2.94387	2.0977
2.93387	2.0598
2.92394	1.9841
2.91408	1.9375
2.90429	1.8826
2.89456	1.8186
2.88489	1.7561
2.87529	1.7012
2.86576	1.6558
2.85628	1.5947
2.84687	1.5217
2.83752	1.4504
2.82823	1.4011
2.81901	1.3113
2.80984	1.2317
2.80073	1.1042
2.79168	1.095
2.78269	1.1768
2.77376	1.2195
2.76488	1.1414
2.75606	1.0913
2.7473	1.0981
2.73859	1.1184
2.72994	1.179
2.72134	1.1238
2.7128	1.0435
2.70431	1.1084
2.69587	1.314
2.68748	2.2292
2.67915	2.9812
2.67087	3.4412
2.66264	3.7551
2.65446	3.9368
2.64633	4.02
2.63825	4.1582
2.63021	4.2551
2.62223	4.2588
2.6143	4.3418
2.60641	4.4067
2.59857	4.4822
2.59078	4.5596
2.58304	4.5871
2.57534	4.7207
2.56768	4.8559
2.56008	5.0188
2.55251	5.1313
2.54499	5.2898
2.53752	5.5571
2.53009	5.8501
2.5227	6.0542
2.51536	6.3076
2.50806	6.4868
2.5008	6.7114
2.49358	6.8606
2.4864	7.0317
2.47927	7.1592
2.47218	7.2744
2.46512	7.3406
2.45811	7.4507
2.45114	7.5151
2.4442	7.593
2.43731	7.6797
2.43045	7.8105
2.42363	7.8647
2.41685	7.9531
2.41011	8.0359
2.40341	8.0556
2.39674	8.0332
2.39011	8.0005
2.38352	8.0029
2.37696	8.0005
2.37044	8.0058
2.36395	7.9682
2.35751	7.957
2.35109	7.9194
2.34471	7.9201
2.33836	7.9873
2.33205	7.9531
2.32578	7.9814
2.31953	8.0615
2.31332	8.1228
2.30714	8.1404
2.301	8.2605
2.29489	8.2783
2.28881	8.333
2.28276	8.3237
2.27675	8.3896
2.27076	8.3449
2.26481	8.3042
2.25889	8.2666
2.253	8.2488
2.24714	8.2319
2.24131	8.311
2.23551	8.3745
2.22974	8.3887
2.224	8.3877
2.21829	8.333
2.21261	8.1748
2.20696	8.1125
2.20134	8.2483
2.19574	8.3362
2.19018	8.3938
2.18464	8.498
2.17913	8.5285
2.17365	8.5669
2.16819	8.5967
2.16277	8.7688
2.15737	8.8696
2.15199	8.9912
2.14665	9.0405
2.14133	9.1474
2.13603	9.1692
2.13077	9.2109
2.12552	9.2629
2.12031	9.259
2.11512	9.3108
2.10995	9.2954
2.10481	9.3303
2.0997	9.2932
2.09461	9.3779
2.08954	9.3664
2.0845	9.3459
2.07948	9.4502
