Name: Wollastonite CaSiO3
Type: Mineral
Class: Silicates
Subclass: Inosilicates (Chain Silicates); (Pyroxenoid Group)
Particle Size: Fine  (0 - 74  Micrometers)
Sample No.: wollasto.1
Owner: JHU
Wavelength Range: IR
Origin: Santa Fe Mine, Pichucalco, Chiapas, Mexico via the
Description: The sample consisted of a 2 cm x 1 cm x 0.5 cm well-
Measurement: Bidirectional reflectance
X Units: Wavelength (micrometers)
Y Units: Reflectance (percent)
wavelength	value
25.0442	1.1995
24.3388	1.4106
23.6719	2.0708
23.0407	2.1577
22.4422	2.0615
21.8741	2.3867
21.334	1.8591
20.8199	2.3767
20.33	2.1514
19.8627	1.6152
19.4163	2.3186
18.9896	2.9026
18.5812	3.2009
18.19	2.9236
17.815	2.073
17.4551	1.6843
17.1094	1.5732
16.7772	1.6433
16.4576	2.073
16.15	2.1362
15.8537	1.8415
15.568	1.4954
15.2925	1.3689
15.0265	1.6262
14.7697	1.3372
14.5214	1.0845
14.2814	2.2678
14.0492	3.1597
13.8244	3.6743
13.6067	4.03
13.3957	4.1687
13.1912	4.2432
12.9929	4.206
12.8004	4.1074
12.6135	3.8996
12.432	3.7156
12.2557	3.5093
12.0843	3.2422
11.9176	2.9092
11.7555	2.5933
11.5977	2.189
11.444	1.7458
11.2944	1.4675
11.1487	1.439
11.0067	1.4375
10.8682	1.5762
10.7332	1.9873
10.6015	2.3872
10.473	2.5461
10.3476	2.5881
10.2251	2.2959
10.1056	2.1677
9.98873	1.8987
9.87458	1.845
9.763	1.6592
9.65392	1.4294
9.54724	1.4182
9.44291	1.7978
9.34082	2.6553
9.24091	2.7793
9.14312	2.2153
9.04739	1.9568
8.95363	2.0879
8.8618	2.4836
8.77183	2.9123
8.68368	2.2502
8.59727	1.6016
8.51257	1.2495
8.42951	1.2144
8.34807	1.4788
8.26819	1.9106
8.18981	2.3772
8.11292	2.9404
8.03745	3.3584
7.96337	3.6135
7.89064	3.8044
7.81924	4.1484
7.74911	4.4348
7.68023	4.6221
7.61256	4.6936
7.54608	4.7864
7.48074	4.9385
7.41653	5.1943
7.35341	5.5183
7.29136	5.7676
7.23034	5.8572
7.17033	5.8152
7.11132	5.7778
7.05327	5.7126
6.99616	5.6994
6.93996	5.634
6.88467	5.6516
6.83024	5.6169
6.77667	5.5232
6.72393	5.3262
6.67201	5.3052
6.62089	5.7463
6.57054	6.1086
6.52095	6.1738
6.4721	5.8784
6.42398	5.5141
6.37657	5.1807
6.32986	5.4563
6.28382	5.8498
6.23845	5.6977
6.19373	5.6245
6.14965	5.5552
6.10619	5.4919
6.06334	5.8454
6.02109	6.4409
5.97942	6.884
5.93832	6.8992
5.89778	6.6821
5.8578	6.404
5.81835	5.9844
5.77943	6.0549
5.74103	6.3972
5.70314	7.0859
5.66574	7.7519
5.62883	7.8017
5.5924	7.7419
5.55644	7.5456
5.52093	8.0293
5.48588	8.5823
5.45127	8.8935
5.41709	8.9868
5.38334	8.6181
5.35	8.4695
5.31708	7.9724
5.28456	6.6911
5.25243	6.1523
5.2207	6.2241
5.18934	6.4824
5.15836	7.102
5.12775	7.5976
5.09749	7.9194
5.0676	8.1033
5.03805	8.2243
5.00884	8.3205
4.97998	8.4348
4.95144	8.3442
4.92322	8.1762
4.89533	8.529
4.86775	8.7597
4.84048	8.9411
4.81351	9.32
4.78684	9.6289
4.76047	9.8313
4.73439	10.1911
4.70859	10.4719
4.68306	10.5544
4.65782	10.7815
4.63284	11.1318
4.60814	11.3987
4.58369	11.4939
4.5595	11.5803
4.53557	11.8469
4.51188	11.9319
4.48845	11.9612
4.46525	11.9963
4.44229	12.0207
4.41957	12.0515
4.39708	12.0781
4.37481	12.1003
4.35277	12.1296
4.33096	12.1535
4.30935	12.165
4.28797	12.1755
4.26679	12.1982
4.24583	12.2375
4.22506	12.2605
4.2045	12.2932
4.18414	12.3076
4.16398	12.3115
4.14401	12.3117
4.12423	12.3283
4.10464	12.3513
4.08523	12.3767
4.066	12.3899
4.04696	12.3586
4.02809	12.2834
4.0094	12.1582
3.99088	11.9538
3.97253	11.9109
3.95435	12.011
3.93634	12.1611
3.91848	12.1838
3.90079	12.2021
3.88326	12.2026
3.86589	12.1955
3.84867	12.1799
3.8316	12.1855
3.81468	12.2136
3.79791	12.2448
3.78129	12.2607
3.76482	12.2634
3.74848	12.2375
3.73229	12.2177
3.71624	12.1797
3.70032	12.1443
3.68454	12.0935
3.6689	12.0656
3.65338	12.0285
3.638	12.0141
3.62275	11.9826
3.60762	11.9443
3.59262	11.907
3.57775	11.854
3.56299	11.811
3.54836	11.7678
3.53385	11.7065
3.51945	11.5761
3.50517	11.3969
3.49101	11.3508
3.47696	11.3369
3.46303	11.424
3.4492	11.396
3.43549	11.321
3.42188	11.1804
3.40838	11.1479
3.39499	11.2253
3.38171	11.2134
3.36852	11.2119
3.35544	11.2429
3.34246	11.3134
3.32958	11.3799
3.3168	11.3864
3.30411	11.3759
3.29153	11.3686
3.27903	11.3532
3.26664	11.3318
3.25433	11.3137
3.24212	11.3017
3.23	11.2824
3.21797	11.2441
3.20603	11.2204
3.19418	11.1831
3.18241	11.1452
3.17074	11.1159
3.15914	11.0583
3.14763	10.9958
3.13621	10.937
3.12487	10.8779
3.11361	10.8237
3.10243	10.761
3.09133	10.6855
3.0803	10.6247
3.06936	10.5764
3.0585	10.5466
3.04771	10.5332
3.037	10.4941
3.02636	10.4592
3.0158	10.4128
3.00531	10.3537
2.99489	10.3008
2.98454	10.2583
2.97427	10.1789
2.96407	10.0898
2.95393	10.0344
2.94387	9.9992
2.93387	10.0139
2.92394	10.05
2.91408	10.0825
2.90429	10.1294
2.89456	10.1989
2.88489	10.2439
2.87529	10.2737
2.86576	10.3047
2.85628	10.3628
2.84687	10.4475
2.83752	10.5256
2.82823	10.5862
2.81901	10.6299
2.80984	10.6967
2.80073	10.8332
2.79168	10.9575
2.78269	11.0725
2.77376	11.1718
2.76488	11.2622
2.75606	11.3291
2.7473	11.5717
2.73859	11.7851
2.72994	12.0483
2.72134	12.2358
2.7128	12.4214
2.70431	12.5136
2.69587	12.6902
2.68748	12.8457
2.67915	12.9455
2.67087	13.0112
2.66264	13.1687
2.65446	13.1989
2.64633	13.2234
2.63825	13.2317
2.63021	13.2251
2.62223	13.2407
2.6143	13.2531
2.60641	13.2307
2.59857	13.2629
2.59078	13.2966
2.58304	13.2873
2.57534	13.2541
2.56768	13.2724
2.56008	13.2312
2.55251	13.2158
2.54499	13.2317
2.53752	13.2285
2.53009	13.2544
2.5227	13.2085
2.51536	13.2375
2.50806	13.2392
2.5008	13.2444
2.49358	13.227
2.4864	13.2522
2.47927	13.2607
2.47218	13.2404
2.46512	13.2456
2.45811	13.2592
2.45114	13.27
2.4442	13.26
2.43731	13.2746
2.43045	13.292
2.42363	13.2802
2.41685	13.3069
2.41011	13.3266
2.40341	13.3159
2.39674	13.2915
2.39011	13.302
2.38352	13.2837
2.37696	13.2985
2.37044	13.3471
2.36395	13.3725
2.35751	13.3266
2.35109	13.3591
2.34471	13.3864
2.33836	13.3379
2.33205	13.3191
2.32578	13.364
2.31953	13.4077
2.31332	13.4111
2.30714	13.4575
2.301	13.4233
2.29489	13.4777
2.28881	13.4853
2.28276	13.4873
2.27675	13.4812
2.27076	13.4758
2.26481	13.5129
2.25889	13.5131
2.253	13.5376
2.24714	13.5356
2.24131	13.5317
2.23551	13.5713
2.22974	13.5781
2.224	13.5605
2.21829	13.5903
2.21261	13.6325
2.20696	13.5859
2.20134	13.6335
2.19574	13.6826
2.19018	13.6801
2.18464	13.7268
2.17913	13.7251
2.17365	13.7834
2.16819	13.7307
2.16277	13.7634
2.15737	13.7629
2.15199	13.7275
2.14665	13.7749
2.14133	13.7873
2.13603	13.8098
2.13077	13.8398
2.12552	13.842
2.12031	13.8476
2.11512	13.8252
2.10995	13.8383
2.10481	13.8672
2.0997	13.8816
2.09461	13.938
2.08954	13.9668
2.0845	13.9438
2.07948	13.998
