Name: Olivine (Fo18) (Fe+2,Mg)2SiO4
Type: Mineral
Class: Silicates
Subclass: Nesosilicates (Isolated tetrahedra); (Olivine Group)
Particle Size: 0-60 micrometers.  (Packed powder simulates coarse.)
Sample No.: olivine.2
Owner: JHU
Wavelength Range: IR
Origin: Kiglapait Intrusion, Labrador via Trude King #KI3377
Description: Initially, the specimen was contaminated with pyroxene,
Measurement: Bidirectional reflectance
X Units: Wavelength (micrometers)
Y Units: Reflectance (percent)
wavelength	value
25.0442	3.6948
24.3388	4.105
23.6719	4.0669
23.0407	4.1196
22.4422	4.4287
21.8741	5.0517
21.334	6.1301
20.8199	6.9292
20.33	7.0622
19.8627	7.9792
19.4163	8.4861
18.9896	8.3991
18.5812	6.7143
18.19	4.7261
17.815	4.2522
17.4551	4.8122
17.1094	5.2095
16.7772	5.3708
16.4576	4.6499
16.15	3.1423
15.8537	2.8032
15.568	3.1521
15.2925	3.4756
15.0265	3.8076
14.7697	4.0466
14.5214	4.2248
14.2814	4.4333
14.0492	4.5876
13.8244	4.6045
13.6067	4.5945
13.3957	4.5627
13.1912	4.5329
12.9929	4.5185
12.8004	4.4431
12.6135	4.3608
12.432	4.3574
12.2557	4.4299
12.0843	4.904
11.9176	4.2754
11.7555	5.418
11.5977	6.935
11.444	8.2007
11.2944	8.977
11.1487	9.6167
11.0067	10.237
10.8682	9.7202
10.7332	6.4011
10.6015	7.6357
10.473	9.3559
10.3476	7.7634
10.2251	6.9477
10.1056	6.3625
9.98873	6.1523
9.87458	6.2153
9.763	6.207
9.65392	5.1833
9.54724	3.7244
9.44291	2.6121
9.34082	2.2585
9.24091	2.4187
9.14312	2.706
9.04739	3.0178
8.95363	3.3682
8.8618	3.6309
8.77183	3.8865
8.68368	4.1531
8.59727	4.386
8.51257	4.6645
8.42951	4.9011
8.34807	5.1675
8.26819	5.4258
8.18981	5.6208
8.11292	5.6741
8.03745	5.6284
7.96337	5.592
7.89064	5.5449
7.81924	5.4829
7.74911	5.5229
7.68023	5.6267
7.61256	5.7637
7.54608	5.894
7.48074	5.9739
7.41653	6.0347
7.35341	6.0925
7.29136	6.1035
7.23034	6.1079
7.17033	6.112
7.11132	6.1384
7.05327	6.1445
6.99616	6.1655
6.93996	6.1745
6.88467	6.1899
6.83024	6.1875
6.77667	6.1714
6.72393	6.1262
6.67201	6.1196
6.62089	6.133
6.57054	6.1362
6.52095	6.1003
6.4721	6.073
6.42398	6.0322
6.37657	5.9563
6.32986	5.8835
6.28382	5.8076
6.23845	5.7253
6.19373	5.6084
6.14965	5.4001
6.10619	5.0742
6.06334	4.9087
6.02109	5.0107
5.97942	5.0351
5.93832	5.0293
5.89778	5.0635
5.8578	5.0847
5.81835	4.9953
5.77943	4.7878
5.74103	4.5893
5.70314	4.5483
5.66574	4.6577
5.62883	4.7583
5.5924	4.7991
5.55644	4.8432
5.52093	4.9126
5.48588	5.0149
5.45127	5.1001
5.41709	5.1609
5.38334	5.2041
5.35	5.292
5.31708	5.3921
5.28456	5.4787
5.25243	5.5576
5.2207	5.6128
5.18934	5.6582
5.15836	5.708
5.12775	5.779
5.09749	5.8862
5.0676	6.0017
5.03805	6.1233
5.00884	6.218
4.97998	6.2991
4.95144	6.3738
4.92322	6.4375
4.89533	6.5034
4.86775	6.5781
4.84048	6.6506
4.81351	6.7021
4.78684	6.7676
4.76047	6.831
4.73439	6.9023
4.70859	6.9736
4.68306	7.0505
4.65782	7.1238
4.63284	7.2048
4.60814	7.2978
4.58369	7.3745
4.5595	7.4563
4.53557	7.5476
4.51188	7.6264
4.48845	7.7187
4.46525	7.8125
4.44229	7.8948
4.41957	7.9936
4.39708	8.0962
4.37481	8.2041
4.35277	8.2949
4.33096	8.3742
4.30935	8.4719
4.28797	8.5722
4.26679	8.676
4.24583	8.7793
4.22506	8.8872
4.2045	9.0005
4.18414	9.1025
4.16398	9.2192
4.14401	9.3054
4.12423	9.4104
4.10464	9.5158
4.08523	9.6264
4.066	9.728
4.04696	9.8301
4.02809	9.9394
4.0094	10.0573
3.99088	10.185
3.97253	10.2922
3.95435	10.4009
3.93634	10.5197
3.91848	10.6272
3.90079	10.7478
3.88326	10.8698
3.86589	10.9641
3.84867	11.0844
3.8316	11.1792
3.81468	11.2895
3.79791	11.414
3.78129	11.5217
3.76482	11.6379
3.74848	11.7273
3.73229	11.8374
3.71624	11.9402
3.70032	12.0315
3.68454	12.1242
3.6689	12.2238
3.65338	12.3152
3.638	12.4055
3.62275	12.4953
3.60762	12.5937
3.59262	12.6819
3.57775	12.7578
3.56299	12.8215
3.54836	12.8884
3.53385	12.906
3.51945	12.8403
3.50517	12.581
3.49101	12.8388
3.47696	12.9773
3.46303	13.0515
3.4492	13.0024
3.43549	12.8745
3.42188	12.5783
3.40838	12.7756
3.39499	13.155
3.38171	13.2265
3.36852	13.3994
3.35544	13.6152
3.34246	13.728
3.32958	13.7749
3.3168	13.8227
3.30411	13.8005
3.29153	13.8828
3.27903	13.9128
3.26664	13.8977
3.25433	13.9106
3.24212	13.9318
3.23	13.9536
3.21797	13.9416
3.20603	13.947
3.19418	13.9355
3.18241	13.9314
3.17074	13.9206
3.15914	13.9123
3.14763	13.8867
3.13621	13.8532
3.12487	13.843
3.11361	13.8349
3.10243	13.8393
3.09133	13.8315
3.0803	13.8303
3.06936	13.8239
3.0585	13.8117
3.04771	13.82
3.037	13.8081
3.02636	13.7717
3.0158	13.7463
3.00531	13.7141
2.99489	13.6811
2.98454	13.6579
2.97427	13.6145
2.96407	13.5888
2.95393	13.5603
2.94387	13.56
2.93387	13.5627
2.92394	13.5656
2.91408	13.5666
2.90429	13.5813
2.89456	13.5703
2.88489	13.5222
2.87529	13.4936
2.86576	13.4421
2.85628	13.3891
2.84687	13.3278
2.83752	13.2299
2.82823	13.0854
2.81901	12.9487
2.80984	12.864
2.80073	12.8266
2.79168	12.852
2.78269	12.9489
2.77376	13.1318
2.76488	13.4235
2.75606	13.7758
2.7473	14.4675
2.73859	15.3693
2.72994	16.3027
2.72134	17.4411
2.7128	18.1286
2.70431	18.5756
2.69587	18.8884
2.68748	19.0822
2.67915	19.2416
2.67087	19.3674
2.66264	19.4194
2.65446	19.4313
2.64633	19.4777
2.63825	19.4926
2.63021	19.5695
2.62223	19.5624
2.6143	19.6003
2.60641	19.6137
2.59857	19.6225
2.59078	19.6662
2.58304	19.6867
2.57534	19.7077
2.56768	19.6984
2.56008	19.7214
2.55251	19.6921
2.54499	19.6979
2.53752	19.7338
2.53009	19.7033
2.5227	19.7172
2.51536	19.707
2.50806	19.737
2.5008	19.7041
2.49358	19.7312
2.4864	19.7048
2.47927	19.6914
2.47218	19.7006
2.46512	19.6218
2.45811	19.6586
2.45114	19.7089
2.4442	19.6572
2.43731	19.6398
2.43045	19.6499
2.42363	19.6555
2.41685	19.6376
2.41011	19.6325
2.40341	19.6076
2.39674	19.5644
2.39011	19.5439
2.38352	19.5397
2.37696	19.5605
2.37044	19.5219
2.36395	19.4936
2.35751	19.4633
2.35109	19.4682
2.34471	19.4511
2.33836	19.4091
2.33205	19.392
2.32578	19.374
2.31953	19.3554
2.31332	19.2841
2.30714	19.3203
2.301	19.2753
2.29489	19.2929
2.28881	19.2734
2.28276	19.2348
2.27675	19.2258
2.27076	19.2001
2.26481	19.2246
2.25889	19.2314
2.253	19.2021
2.24714	19.1772
2.24131	19.164
2.23551	19.1833
2.22974	19.155
2.224	19.1489
2.21829	19.1799
2.21261	19.1579
2.20696	19.1052
2.20134	19.0937
2.19574	19.0764
2.19018	19.0966
2.18464	19.0351
2.17913	19.0478
2.17365	19.0217
2.16819	19.0373
2.16277	19.0112
2.15737	19.0317
2.15199	18.9633
2.14665	18.9335
2.14133	18.9526
2.13603	18.9191
2.13077	18.8664
2.12552	18.8696
2.12031	18.8613
2.11512	18.8837
2.10995	18.8156
2.10481	18.8325
2.0997	18.8325
2.09461	18.8417
2.08954	18.8315
2.0845	18.7666
2.07948	18.767
