Name: Ucera
Type: Stony Meteorites
Class: Ordinary Chondrite
Subclass: H5
Particle Size: 0-75 micrometers
Sample No.: Ucera
Owner: JHU
Origin: Meteorite seen to fall in 1970.  Smithsonian sample No. USNM 5292.
Description: None.
Measurement: Bidirectional reflectance
X Units: Wavelength (micrometers)
Y Units: Reflectance (percent)
wavelength	value
25.044	1.0593
24.339	1.3494
23.672	1.2148
23.041	0.9807
22.442	0.8726
21.874	0.7683
21.334	0.7639
20.82	0.8274
20.33	0.9995
19.863	1.1221
19.416	1.1353
18.99	1.0852
18.581	1.0422
18.19	1.0354
17.815	0.8953
17.455	0.8721
17.109	0.845
16.777	0.7759
16.458	0.7754
16.15	0.8181
15.854	0.7632
15.568	0.6748
15.292	0.6267
15.027	0.7681
14.77	0.8467
14.521	0.9429
14.281	1.1257
14.049	1.2261
13.824	1.1626
13.607	1.2739
13.396	1.4624
13.191	1.7187
12.993	1.8428
12.8	1.8379
12.614	1.8101
12.432	1.7427
12.256	1.5781
12.084	1.2739
11.918	1.0535
11.755	1.021
11.598	1.1038
11.444	1.2991
11.294	1.3872
11.149	1.3481
11.007	1.3491
10.868	1.4019
10.733	1.4748
10.602	1.4514
10.473	1.2693
10.348	1.1235
10.225	1.137
10.106	1.0996
9.9887	1.021
9.8746	0.9853
9.763	0.9431
9.6539	1.0212
9.5472	1.1196
9.4429	1.1721
9.3408	1.1392
9.2409	1.0361
9.1431	1.0073
9.0474	1.022
8.9536	1.0005
8.8618	0.977
8.7718	0.9495
8.6837	0.9648
8.5973	0.959
8.5126	1.0051
8.4295	1.0947
8.3481	1.2373
8.2682	1.4158
8.1898	1.6157
8.1129	1.8308
8.0374	2.0371
7.9634	2.2112
7.8906	2.3574
7.8192	2.4844
7.7491	2.6208
7.6802	2.7268
7.6126	2.8122
7.5461	2.9158
7.4807	3.0286
7.4165	3.1448
7.3534	3.2573
7.2914	3.353
7.2303	3.4358
7.1703	3.5137
7.1113	3.5666
7.0533	3.6221
6.9962	3.7056
6.94	3.7859
6.8847	3.8459
6.8302	3.9175
6.7767	3.9927
6.7239	4.0525
6.672	4.0625
6.6209	4.0593
6.5705	4.0832
6.5209	4.116
6.4721	4.1047
6.424	4.063
6.3766	4.0137
6.3299	3.9402
6.2838	3.9246
6.2385	3.9358
6.1937	3.9575
6.1496	4.0078
6.1062	4.0183
6.0633	3.9294
6.0211	3.8296
5.9794	3.8882
5.9383	4.0249
5.8978	4.1023
5.8578	4.1565
5.8184	4.1897
5.7794	4.2236
5.741	4.2087
5.7031	4.1218
5.6657	4.0225
5.6288	4.0129
5.5924	4.1543
5.5564	4.3093
5.5209	4.3647
5.4859	4.3704
5.4513	4.3918
5.4171	4.4556
5.3833	4.5449
5.35	4.6033
5.3171	4.6128
5.2846	4.5962
5.2524	4.5737
5.2207	4.5605
5.1893	4.5503
5.1584	4.5471
5.1277	4.5984
5.0975	4.6531
5.0676	4.7121
5.038	4.7588
5.0088	4.7932
4.98	4.8093
4.9514	4.8401
4.9232	4.9075
4.8953	4.9917
4.8678	5.0557
4.8405	5.0972
4.8135	5.1521
4.7868	5.2156
4.7605	5.2585
4.7344	5.303
4.7086	5.3347
4.6831	5.363
4.6578	5.3935
4.6328	5.4348
4.6081	5.4697
4.5837	5.4978
4.5595	5.5215
4.5356	5.5422
4.5119	5.5544
4.4884	5.5581
4.4652	5.5647
4.4423	5.5693
4.4196	5.5727
4.3971	5.5786
4.3748	5.5911
4.3528	5.592
4.331	5.6006
4.3094	5.6094
4.288	5.6142
4.2668	5.6247
4.2458	5.6279
4.2251	5.6338
4.2045	5.6506
4.1841	5.654
4.164	5.6553
4.144	5.6553
4.1242	5.6579
4.1046	5.6584
4.0852	5.6562
4.066	5.6516
4.047	5.6501
4.0281	5.6409
4.0094	5.6411
3.9909	5.6379
3.9725	5.6306
3.9544	5.6272
3.9363	5.623
3.9185	5.6206
3.9008	5.612
3.8833	5.6059
3.8659	5.6086
3.8487	5.6111
3.8316	5.614
3.8147	5.603
3.7979	5.604
3.7813	5.5996
3.7648	5.5952
3.7485	5.593
3.7323	5.5879
3.7162	5.5791
3.7003	5.5693
3.6845	5.561
3.6689	5.5566
3.6534	5.551
3.638	5.5449
3.6227	5.5329
3.6076	5.5246
3.5926	5.5134
3.5777	5.4961
3.563	5.4873
3.5484	5.4663
3.5338	5.4475
3.5195	5.4314
3.5052	5.3974
3.491	5.3906
3.477	5.3911
3.463	5.3828
3.4492	5.3674
3.4355	5.3447
3.4219	5.2998
3.4084	5.2898
3.395	5.3052
3.3817	5.3054
3.3685	5.3003
3.3554	5.3044
3.3425	5.2969
3.3296	5.2917
3.3168	5.2768
3.3041	5.2698
3.2915	5.2495
3.279	5.237
3.2666	5.2292
3.2543	5.2095
3.2421	5.1904
3.23	5.1736
3.218	5.1619
3.206	5.1428
3.1942	5.1274
3.1824	5.1064
3.1707	5.0928
3.1591	5.0774
3.1476	5.0661
3.1362	5.0547
3.1249	5.0444
3.1136	5.0264
3.1024	5.02
3.0913	4.9997
3.0803	4.9941
3.0694	4.977
3.0585	4.9724
3.0477	4.9619
3.037	4.9534
3.0264	4.9424
3.0158	4.937
3.0053	4.9184
2.9949	4.9075
2.9845	4.9004
2.9743	4.887
2.9641	4.8721
2.9539	4.8657
2.9439	4.852
2.9339	4.8393
2.9239	4.8381
2.9141	4.8257
2.9043	4.8242
2.8946	4.8203
2.8849	4.8218
2.8753	4.812
2.8658	4.8157
2.8563	4.8078
2.8469	4.813
2.8375	4.8088
2.8282	4.812
2.819	4.8152
2.8098	4.8306
2.8007	4.8369
2.7917	4.8415
2.7827	4.8557
2.7738	4.866
2.7649	4.8716
2.7561	4.8953
2.7473	4.9121
2.7386	4.9155
2.7299	4.9541
2.7213	4.957
2.7128	4.9702
2.7043	4.9778
2.6959	4.9739
2.6875	4.9765
2.6791	4.957
2.6709	4.9414
2.6626	4.9407
2.6545	4.9446
2.6463	4.9302
2.6382	4.9197
2.6302	4.9092
2.6222	4.9101
2.6143	4.8879
2.6064	4.866
2.5986	4.8708
2.5908	4.8528
2.583	4.8352
2.5753	4.8323
2.5677	4.8271
2.5601	4.8142
2.5525	4.7944
2.545	4.8047
2.5375	4.7844
2.5301	4.7837
2.5227	4.7529
2.5154	4.7446
2.5081	4.7278
2.5008	4.7339
2.4936	4.706
2.4864	4.6907
2.4793	4.6868
2.4722	4.6699
2.4651	4.657
2.4581	4.6494
2.4511	4.6221
2.4442	4.6186
2.4373	4.5876
2.4305	4.5979
2.4236	4.5806
2.4169	4.5732
2.4101	4.5757
2.4034	4.5552
2.3967	4.5742
2.3901	4.552
2.3835	4.5124
2.377	4.5203
2.3704	4.5239
2.364	4.4846
2.3575	4.4956
2.3511	4.4746
2.3447	4.4726
2.3384	4.4624
2.3321	4.4621
2.3258	4.4399
2.3195	4.4582
2.3133	4.4333
2.3071	4.4302
2.301	4.4299
2.2949	4.4226
2.2888	4.4177
2.2828	4.416
2.2767	4.3887
2.2708	4.4121
2.2648	4.3918
2.2589	4.3979
2.253	4.4033
2.2471	4.4045
2.2413	4.4136
2.2355	4.3913
2.2297	4.3804
2.224	4.3782
2.2183	4.3843
2.2126	4.3808
2.207	4.3774
2.2013	4.3848
2.1957	4.3848
2.1902	4.366
2.1846	4.3694
2.1791	4.3628
2.1736	4.3613
2.1682	4.3813
2.1628	4.3708
2.1574	4.3596
2.152	4.3564
2.1466	4.3437
2.1413	4.3437
2.136	4.3655
2.1308	4.3301
2.1255	4.3774
2.1203	4.3408
2.1151	4.3547
2.11	4.365
2.1048	4.3516
2.0997	4.3535
2.0946	4.3393
2.0895	4.364
2.0845	4.3445
2.0795	4.353
