Name: Yamato 791195
Type: Stony Meteorites
Class: Achondrite
Subclass: Eucrite
Particle Size: 0-75 micrometers
Sample No.: Yamato 791195
Owner: JHU
Origin: Meteorite found in Antarctica in 1979.  Smithsonian sample No.
Description: None.
Measurement: Bidirectional reflectance
X Units: Wavelength (micrometers)
Y Units: Reflectance (percent)
wavelength	value
25.044	0.8296
24.339	0.8452
23.672	0.9209
23.041	1.0278
22.442	1.0369
21.874	1.083
21.334	1.115
20.82	1.1172
20.33	1.2124
19.863	1.3535
19.416	1.251
18.99	1.1121
18.581	0.9299
18.19	1.0076
17.815	1.0466
17.455	0.9326
17.109	0.9634
16.777	0.9602
16.458	0.7778
16.15	0.6516
15.854	0.6299
15.568	0.6873
15.292	0.6533
15.027	0.542
14.77	0.5278
14.521	0.7424
14.281	0.9739
14.049	1.1191
13.824	0.9348
13.607	0.863
13.396	1.1384
13.191	1.2034
12.993	1.3635
12.8	1.5454
12.614	1.8308
12.432	2.084
12.256	2.1289
12.084	1.991
11.918	1.7434
11.755	1.5869
11.598	1.4099
11.444	1.3008
11.294	1.1951
11.149	1.0674
11.007	0.8599
10.868	0.8332
10.733	0.8662
10.602	0.823
10.473	0.8386
10.348	0.8206
10.225	0.8049
10.106	0.8584
9.9887	0.8857
9.8746	0.9175
9.763	0.9485
9.6539	0.9556
9.5472	0.9094
9.4429	0.8442
9.3408	0.8528
9.2409	0.865
9.1431	0.9299
9.0474	0.9639
8.9536	0.896
8.8618	0.8018
8.7718	0.6819
8.6837	0.6238
8.5973	0.6116
8.5126	0.634
8.4295	0.6951
8.3481	0.7617
8.2682	0.8201
8.1898	0.8916
8.1129	1.0793
8.0374	1.3918
7.9634	1.7974
7.8906	2.2129
7.8192	2.5786
7.7491	2.8972
7.6802	3.1748
7.6126	3.4316
7.5461	3.7131
7.4807	4.0019
7.4165	4.2688
7.3534	4.5222
7.2914	4.7143
7.2303	4.9184
7.1703	5.0669
7.1113	5.2248
7.0533	5.3689
6.9962	5.4912
6.94	5.5942
6.8847	5.6709
6.8302	5.7348
6.7767	5.7837
6.7239	5.8008
6.672	5.7724
6.6209	5.7444
6.5705	5.6728
6.5209	5.7226
6.4721	5.7895
6.424	5.7983
6.3766	5.781
6.3299	5.6257
6.2838	5.5361
6.2385	5.4846
6.1937	5.3826
6.1496	5.3533
6.1062	5.5217
6.0633	5.6426
6.0211	5.7388
5.9794	5.845
5.9383	6.0832
5.8978	6.491
5.8578	6.8213
5.8184	7.0146
5.7794	7.2207
5.741	7.4182
5.7031	7.522
5.6657	7.5849
5.6288	7.6609
5.5924	7.8257
5.5564	8.0046
5.5209	8.0488
5.4859	7.9568
5.4513	7.7937
5.4171	7.6604
5.3833	7.5974
5.35	7.456
5.3171	7.2783
5.2846	7.1994
5.2524	7.2532
5.2207	7.3855
5.1893	7.563
5.1584	7.7217
5.1277	7.8379
5.0975	7.9321
5.0676	8.0176
5.038	8.1145
5.0088	8.2632
4.98	8.4365
4.9514	8.6233
4.9232	8.8059
4.8953	8.9853
4.8678	9.1823
4.8405	9.3852
4.8135	9.552
4.7868	9.6548
4.7605	9.7861
4.7344	9.9978
4.7086	10.222
4.6831	10.389
4.6578	10.527
4.6328	10.647
4.6081	10.756
4.5837	10.843
4.5595	10.914
4.5356	10.976
4.5119	11.012
4.4884	11.03
4.4652	11.046
4.4423	11.058
4.4196	11.064
4.3971	11.08
4.3748	11.101
4.3528	11.122
4.331	11.147
4.3094	11.177
4.288	11.211
4.2668	11.25
4.2458	11.28
4.2251	11.313
4.2045	11.332
4.1841	11.348
4.164	11.361
4.144	11.373
4.1242	11.385
4.1046	11.399
4.0852	11.418
4.066	11.433
4.047	11.441
4.0281	11.46
4.0094	11.47
3.9909	11.48
3.9725	11.486
3.9544	11.494
3.9363	11.505
3.9185	11.514
3.9008	11.518
3.8833	11.52
3.8659	11.51
3.8487	11.515
3.8316	11.512
3.8147	11.494
3.7979	11.488
3.7813	11.486
3.7648	11.475
3.7485	11.462
3.7323	11.442
3.7162	11.424
3.7003	11.407
3.6845	11.382
3.6689	11.363
3.6534	11.354
3.638	11.339
3.6227	11.305
3.6076	11.284
3.5926	11.253
3.5777	11.22
3.563	11.185
3.5484	11.164
3.5338	11.12
3.5195	11.066
3.5052	10.951
3.491	10.931
3.477	10.909
3.463	10.885
3.4492	10.815
3.4355	10.738
3.4219	10.61
3.4084	10.559
3.395	10.594
3.3817	10.561
3.3685	10.533
3.3554	10.508
3.3425	10.462
3.3296	10.429
3.3168	10.38
3.3041	10.321
3.2915	10.261
3.279	10.196
3.2666	10.13
3.2543	10.07
3.2421	9.9992
3.23	9.9392
3.218	9.8747
3.206	9.8022
3.1942	9.7287
3.1824	9.6426
3.1707	9.5632
3.1591	9.4941
3.1476	9.3967
3.1362	9.3205
3.1249	9.2441
3.1136	9.165
3.1024	9.0906
3.0913	9.0215
3.0803	8.9587
3.0694	8.9131
3.0585	8.8701
3.0477	8.8337
3.037	8.7734
3.0264	8.7121
3.0158	8.644
3.0053	8.5715
2.9949	8.5005
2.9845	8.435
2.9743	8.353
2.9641	8.2732
2.9539	8.1579
2.9439	8.0149
2.9339	7.9402
2.9239	7.9629
2.9141	8.009
2.9043	8.0244
2.8946	8.0102
2.8849	8.0117
2.8753	8.0183
2.8658	8.0759
2.8563	8.1787
2.8469	8.3279
2.8375	8.4812
2.8282	8.584
2.819	8.6228
2.8098	8.6997
2.8007	8.8823
2.7917	9.1006
2.7827	9.291
2.7738	9.4634
2.7649	9.664
2.7561	9.9033
2.7473	10.167
2.7386	10.429
2.7299	10.71
2.7213	10.948
2.7128	11.195
2.7043	11.371
2.6959	11.495
2.6875	11.592
2.6791	11.635
2.6709	11.672
2.6626	11.711
2.6545	11.71
2.6463	11.677
2.6382	11.658
2.6302	11.61
2.6222	11.573
2.6143	11.532
2.6064	11.481
2.5986	11.461
2.5908	11.4
2.583	11.339
2.5753	11.295
2.5677	11.247
2.5601	11.186
2.5525	11.139
2.545	11.098
2.5375	11.046
2.5301	10.979
2.5227	10.947
2.5154	10.88
2.5081	10.819
2.5008	10.753
2.4936	10.708
2.4864	10.644
2.4793	10.585
2.4722	10.528
2.4651	10.451
2.4581	10.4
2.4511	10.334
2.4442	10.271
2.4373	10.205
2.4305	10.133
2.4236	10.07
2.4169	9.9973
2.4101	9.9375
2.4034	9.8825
2.3967	9.8244
2.3901	9.7324
2.3835	9.6946
2.377	9.6418
2.3704	9.5913
2.364	9.5205
2.3575	9.4809
2.3511	9.4118
2.3447	9.3435
2.3384	9.2751
2.3321	9.2224
2.3258	9.1716
2.3195	9.1079
2.3133	9.0666
2.3071	8.9975
2.301	8.9336
2.2949	8.8767
2.2888	8.812
2.2828	8.7573
2.2767	8.7214
2.2708	8.6572
2.2648	8.6157
2.2589	8.5659
2.253	8.5127
2.2471	8.4582
2.2413	8.4238
2.2355	8.3784
2.2297	8.2937
2.224	8.28
2.2183	8.2026
2.2126	8.1614
2.207	8.1313
2.2013	8.0957
2.1957	8.0512
2.1902	8.0151
2.1846	7.9585
2.1791	7.9319
2.1736	7.9109
2.1682	7.8523
2.1628	7.8301
2.1574	7.802
2.152	7.7759
2.1466	7.7541
2.1413	7.6955
2.136	7.6982
2.1308	7.667
2.1255	7.6262
2.1203	7.6018
2.1151	7.5776
2.11	7.5847
2.1048	7.5378
2.0997	7.5366
2.0946	7.5461
2.0895	7.5036
2.0845	7.4717
2.0795	7.459
