Name: Epidote Ca2(Al,Fe+3)3(SiO4)3(OH)
Type: Mineral
Class: Silicates
Subclass: Sorosilicates  (Epidote Group)
Particle Size: Solid
Sample No.: epidote.1
Owner: JHU
Wavelength Range: IR
Origin: Donated by Bruce Hemingway;  Sample from Prince of Wales
Description: The sample consisted of several deep green epidote
Measurement: Bidirectional reflectance
X Units: Wavelength (micrometers)
Y Units: Reflectance (percent)
wavelength	value
25.0442	57.3358
24.3388	49.996
23.6719	51.5155
23.0407	45.5595
22.4422	45.8378
21.8741	43.6874
21.334	38.1293
20.8199	30.8779
20.33	35.3832
19.8627	39.9262
19.4163	41.6874
18.9896	41.9369
18.5812	43.122
18.19	48.7902
17.815	56.5099
17.4551	47.2509
17.1094	39.7719
16.7772	35.0751
16.4576	31.3446
16.15	23.9091
15.8537	26.4006
15.568	32.1711
15.2925	41.7374
15.0265	45.8546
14.7697	43.4589
14.5214	42.7763
14.2814	37.9174
14.0492	24.3754
13.8244	12.1819
13.6067	15.1994
13.3957	17.8107
13.1912	19.7275
12.9929	21.2631
12.8004	22.5996
12.6135	23.9582
12.432	25.383
12.2557	27.1332
12.0843	28.8862
11.9176	30.5231
11.7555	34.7299
11.5977	37.549
11.444	46.8417
11.2944	54.2501
11.1487	47.0087
11.0067	42.2001
10.8682	33.1674
10.7332	30.9736
10.6015	44.1981
10.473	68.4569
10.3476	69.679
10.2251	56.2621
10.1056	40.5614
9.98873	31.7699
9.87458	20.6848
9.763	23.5844
9.65392	33.998
9.54724	47.2382
9.44291	55.9168
9.34082	57.7618
9.24091	58.2772
9.14312	55.5145
9.04739	51.7425
8.95363	49.1698
8.8618	45.1376
8.77183	38.3134
8.68368	27.1962
8.59727	15.2636
8.51257	8.3237
8.42951	10.3891
8.34807	12.3779
8.26819	13.844
8.18981	14.9502
8.11292	15.7837
8.03745	16.4453
7.96337	16.9336
7.89064	17.2973
7.81924	17.6489
7.74911	17.9641
7.68023	18.2592
7.61256	18.5476
7.54608	18.7963
7.48074	18.9797
7.41653	19.2146
7.35341	19.392
7.29136	19.5913
7.23034	19.7951
7.17033	19.8618
7.11132	20.0312
7.05327	20.0834
6.99616	20.2983
6.93996	20.4797
6.88467	20.6083
6.83024	20.6567
6.77667	20.8408
6.72393	20.8251
6.67201	21.0654
6.62089	21.2297
6.57054	21.2656
6.52095	21.2905
6.4721	21.477
6.42398	21.4164
6.37657	21.4438
6.32986	21.6162
6.28382	21.6384
6.23845	21.6879
6.19373	21.7016
6.14965	21.8422
6.10619	21.9824
6.06334	22.0659
6.02109	21.9013
5.97942	21.9755
5.93832	21.7394
5.89778	21.6235
5.8578	21.7275
5.81835	21.7768
5.77943	21.6787
5.74103	21.7983
5.70314	21.8085
5.66574	21.7412
5.62883	21.7944
5.5924	21.8229
5.55644	21.8398
5.52093	21.9118
5.48588	21.9033
5.45127	21.9995
5.41709	22.1196
5.38334	22.0981
5.35	22.1542
5.31708	22.1276
5.28456	22.1945
5.25243	22.2021
5.2207	22.1747
5.18934	22.2221
5.15836	22.2175
5.12775	22.2404
5.09749	22.2309
5.0676	22.2167
5.03805	22.1945
5.00884	22.1928
4.97998	22.1733
4.95144	22.1225
4.92322	22.0666
4.89533	22.0234
4.86775	21.9958
4.84048	22.0168
4.81351	21.9912
4.78684	21.9924
4.76047	22.0082
4.73439	22.0375
4.70859	22.0507
4.68306	22.0612
4.65782	22.1008
4.63284	22.0966
4.60814	22.1035
4.58369	22.1367
4.5595	22.1782
4.53557	22.1894
4.51188	22.2143
4.48845	22.2001
4.46525	22.2158
4.44229	22.2275
4.41957	22.2353
4.39708	22.2197
4.37481	22.1962
4.35277	22.1555
4.33096	22.0886
4.30935	22.0351
4.28797	21.9736
4.26679	21.9243
4.24583	21.8867
4.22506	21.9438
4.2045	22.0148
4.18414	22.0248
4.16398	22.0229
4.14401	22.0288
4.12423	22.018
4.10464	22.0297
4.08523	21.9985
4.066	22.0205
4.04696	21.9985
4.02809	21.998
4.0094	21.9916
3.99088	21.958
3.97253	21.9814
3.95435	21.9672
3.93634	21.9892
3.91848	21.9736
3.90079	21.9526
3.88326	21.9409
3.86589	21.9145
3.84867	21.8915
3.8316	21.9057
3.81468	21.8632
3.79791	21.8281
3.78129	21.7944
3.76482	21.7617
3.74848	21.7475
3.73229	21.7055
3.71624	21.6811
3.70032	21.6645
3.68454	21.6376
3.6689	21.6176
3.65338	21.601
3.638	21.572
3.62275	21.5561
3.60762	21.539
3.59262	21.5266
3.57775	21.5109
3.56299	21.4836
3.54836	21.4787
3.53385	21.4829
3.51945	21.5007
3.50517	21.5942
3.49101	21.4663
3.47696	21.4279
3.46303	21.4038
3.4492	21.4084
3.43549	21.4445
3.42188	21.5993
3.40838	21.4338
3.39499	21.267
3.38171	21.2683
3.36852	21.1789
3.35544	21.1025
3.34246	21.0412
3.32958	21.0063
3.3168	20.9875
3.30411	20.9653
3.29153	20.9682
3.27903	20.9172
3.26664	20.8654
3.25433	20.8723
3.24212	20.8322
3.23	20.8456
3.21797	20.8273
3.20603	20.7954
3.19418	20.8066
3.18241	20.7873
3.17074	20.7626
3.15914	20.7529
3.14763	20.788
3.13621	20.7812
3.12487	20.8242
3.11361	20.8295
3.10243	20.8544
3.09133	20.852
3.0803	20.8586
3.06936	20.8837
3.0585	20.8691
3.04771	20.9287
3.037	21.0275
3.02636	21.2248
3.0158	21.3251
3.00531	21.4123
2.99489	21.6064
2.98454	21.8281
2.97427	21.6437
2.96407	21.4599
2.95393	19.5227
2.94387	15.9191
2.93387	16.1066
2.92394	17.0634
2.91408	17.5949
2.90429	17.9511
2.89456	18.1064
2.88489	18.1845
2.87529	18.1962
2.86576	18.3027
2.85628	18.2861
2.84687	18.2944
2.83752	18.3671
2.82823	18.3403
2.81901	18.4804
2.80984	18.4126
2.80073	18.5122
2.79168	18.4306
2.78269	18.4589
2.77376	18.4619
2.76488	18.4941
2.75606	18.4951
2.7473	18.4365
2.73859	18.7402
2.72994	18.4824
2.72134	18.541
2.7128	18.4834
2.70431	18.5029
2.69587	18.4184
2.68748	18.5415
2.67915	18.4843
2.67087	18.4619
2.66264	18.4497
2.65446	18.498
2.64633	18.4633
2.63825	18.4707
2.63021	18.622
2.62223	18.4169
2.6143	18.4985
2.60641	18.5214
2.59857	18.3442
2.59078	18.4145
2.58304	18.5712
2.57534	18.4599
2.56768	18.4829
2.56008	18.4746
2.55251	18.4028
2.54499	18.3461
2.53752	18.3813
2.53009	18.4062
2.5227	18.371
2.51536	18.4189
2.50806	18.4126
2.5008	18.3984
2.49358	18.4335
2.4864	18.4145
2.47927	18.4301
2.47218	18.3989
2.46512	18.4843
2.45811	18.4399
2.45114	18.4321
2.4442	18.4223
2.43731	18.4101
2.43045	18.4726
2.42363	18.3676
2.41685	18.4531
2.41011	18.4223
2.40341	18.3964
2.39674	18.4204
2.39011	18.3427
2.38352	18.2968
2.37696	18.3691
2.37044	18.249
2.36395	18.2919
2.35751	18.2099
2.35109	18.2255
2.34471	18.2001
2.33836	18.124
2.33205	18.1171
2.32578	18.2207
2.31953	18.2988
2.31332	18.1875
2.30714	18.207
2.301	18.2089
2.29489	18.2793
2.28881	18.3437
2.28276	18.333
2.27675	18.3847
2.27076	18.371
2.26481	18.3554
2.25889	18.3291
2.253	18.3515
2.24714	18.414
2.24131	18.4267
2.23551	18.5166
2.22974	18.457
2.224	18.6367
2.21829	18.5078
2.21261	18.5625
2.20696	18.625
2.20134	18.4541
2.19574	18.5332
2.19018	18.5937
2.18464	18.6953
2.17913	18.5996
2.17365	18.5908
2.16819	18.6181
2.16277	18.621
2.15737	18.5156
2.15199	18.5585
2.14665	18.5292
2.14133	18.6132
2.13603	18.6728
2.13077	18.4931
2.12552	18.6015
2.12031	18.5859
2.11512	18.665
2.10995	18.5781
2.10481	18.5751
2.0997	18.6689
2.09461	18.5273
2.08954	18.5585
2.0845	18.583
2.07948	18.5712
