Name: Clinochlore (Mg,Fe+2)5Al(Si3Al)O10(OH)8
Type: Mineral
Class: Silicates
Subclass: Phyllosilicates (sheet silicates) (Chlorite Group)
Particle Size: Solid (cleavage face)
Sample No.: clinochlore.1
Owner: JHU
Wavelength Range: IR
Origin: The Smithsonian (NMNH 83369), donated by Jim Crowley
Description: The sample was a green micaceous mass about 3 cm
Measurement: Bidirectional reflectance
X Units: Wavelength (micrometers)
Y Units: Reflectance (percent)
wavelength	value
25.044	15.1
24.339	16.474
23.672	17.805
23.041	19.783
22.442	22.442
21.874	24.864
21.334	30.254
20.82	31.483
20.33	28.197
19.863	28.635
19.416	28.725
18.99	23.063
18.581	15.171
18.19	11.896
17.815	12.842
17.455	6.5088
17.109	5.9736
16.777	7.0718
16.458	8.2402
16.15	9.4038
15.854	10.515
15.568	11.955
15.292	13.093
15.027	12.885
14.77	11.998
14.521	10.89
14.281	9.5376
14.049	8.979
13.824	8.9787
13.607	8.8506
13.396	8.7346
13.191	8.7944
12.993	8.2243
12.8	7.4031
12.614	6.6037
12.432	6.322
12.256	6.4336
12.084	6.4668
11.918	6.6636
11.755	7.1076
11.598	7.4824
11.444	7.8157
11.294	8.1719
11.149	8.6921
11.007	9.2685
10.868	10.032
10.733	11.213
10.602	13.03
10.473	15.223
10.348	16.472
10.225	16.511
10.106	17.898
9.9887	19.971
9.8746	23.681
9.763	27.573
9.6539	28.773
9.5472	26.568
9.4429	24.177
9.3408	23.5
9.2409	23.938
9.1431	23.453
9.0474	20.387
8.9536	13.906
8.8618	10.797
8.7718	7.0412
8.6837	3.3447
8.5973	1.8298
8.5126	2.0547
8.4295	2.3855
8.3481	2.6936
8.2682	2.9707
8.1898	3.1875
8.1129	3.3979
8.0374	3.5676
7.9634	3.7256
7.8906	3.8894
7.8192	4.0483
7.7491	4.1951
7.6802	4.3418
7.6126	4.4504
7.5461	4.5495
7.4807	4.6411
7.4165	4.7114
7.3534	4.7971
7.2914	4.8608
7.2303	4.9319
7.1703	4.9912
7.1113	5.0683
7.0533	5.1311
6.9962	5.1872
6.94	5.2241
6.8847	5.2397
6.8302	5.2786
6.7767	5.3308
6.7239	5.3652
6.672	5.3935
6.6209	5.4155
6.5705	5.4287
6.5209	5.4287
6.4721	5.4079
6.424	5.3816
6.3766	5.3552
6.3299	5.3371
6.2838	5.3506
6.2385	5.3743
6.1937	5.3955
6.1496	5.4148
6.1062	5.4346
6.0633	5.4514
6.0211	5.4722
5.9794	5.4665
5.9383	5.4646
5.8978	5.4748
5.8578	5.4744
5.8184	5.4778
5.7794	5.5586
5.741	5.6633
5.7031	5.7029
5.6657	5.7319
5.6288	5.7444
5.5924	5.7549
5.5564	5.771
5.5209	5.7905
5.4859	5.8223
5.4513	5.8623
5.4171	5.9482
5.3833	6.0803
5.35	6.2361
5.3171	6.3689
5.2846	6.4524
5.2524	6.5041
5.2207	6.5066
5.1893	6.4985
5.1584	6.4682
5.1277	6.4363
5.0975	6.4167
5.0676	6.3852
5.038	6.3691
5.0088	6.3391
4.98	6.3237
4.9514	6.354
4.9232	6.4311
4.8953	6.5207
4.8678	6.6184
4.8405	6.7292
4.8135	6.8498
4.7868	6.9829
4.7605	7.1242
4.7344	7.3032
4.7086	7.4971
4.6831	7.6897
4.6578	7.9516
4.6328	8.2634
4.6081	8.5766
4.5837	8.8467
4.5595	9.0793
4.5356	9.229
4.5119	9.3288
4.4884	9.3965
4.4652	9.4538
4.4423	9.5063
4.4196	9.5532
4.3971	9.5842
4.3748	9.6296
4.3528	9.6552
4.331	9.6682
4.3094	9.6946
4.288	9.7231
4.2668	9.7634
4.2458	9.7942
4.2251	9.8303
4.2045	9.8613
4.1841	9.9001
4.164	9.9153
4.144	9.924
4.1242	9.9431
4.1046	9.9538
4.0852	9.9631
4.066	9.9824
4.047	9.9726
4.0281	9.9582
4.0094	9.9426
3.9909	9.9258
3.9725	9.9138
3.9544	9.9033
3.9363	9.9074
3.9185	9.9084
3.9008	9.9135
3.8833	9.9023
3.8659	9.886
3.8487	9.851
3.8316	9.811
3.8147	9.7776
3.7979	9.7522
3.7813	9.7319
3.7648	9.716
3.7485	9.6743
3.7323	9.6538
3.7162	9.6167
3.7003	9.5788
3.6845	9.5361
3.6689	9.5295
3.6534	9.5007
3.638	9.4699
3.6227	9.4399
3.6076	9.3777
3.5926	9.3293
3.5777	9.2693
3.563	9.1797
3.5484	9.1011
3.5338	9.0178
3.5195	8.9006
3.5052	8.7444
3.491	8.7107
3.477	8.654
3.463	8.6006
3.4492	8.5061
3.4355	8.3855
3.4219	8.2356
3.4084	8.1821
3.395	8.1338
3.3817	7.9985
3.3685	7.9065
3.3554	7.7827
3.3425	7.6426
3.3296	7.5642
3.3168	7.5469
3.3041	7.4922
3.2915	7.386
3.279	7.27
3.2666	7.2324
3.2543	7.2698
3.2421	7.3032
3.23	7.2485
3.218	7.1687
3.206	7.0322
3.1942	6.8574
3.1824	6.6848
3.1707	6.4641
3.1591	6.2659
3.1476	6.0742
3.1362	5.9199
3.1249	5.7744
3.1136	5.6081
3.1024	5.4595
3.0913	5.2888
3.0803	5.1182
3.0694	4.9756
3.0585	4.8384
3.0477	4.7456
3.037	4.6548
3.0264	4.5542
3.0158	4.4617
3.0053	4.3789
2.9949	4.2876
2.9845	4.2153
2.9743	4.144
2.9641	4.0832
2.9539	4.031
2.9439	3.9853
2.9339	3.9267
2.9239	3.874
2.9141	3.8433
2.9043	3.8027
2.8946	3.8059
2.8849	3.7983
2.8753	3.8113
2.8658	3.8061
2.8563	3.8347
2.8469	3.8198
2.8375	3.7681
2.8282	3.7134
2.819	3.6645
2.8098	3.6372
2.8007	3.583
2.7917	3.5654
2.7827	3.5596
2.7738	3.5513
2.7649	3.564
2.7561	3.6089
2.7473	3.6787
2.7386	3.748
2.7299	3.8159
2.7213	3.7695
2.7128	4.0171
2.7043	5.9248
2.6959	6.8393
2.6875	7.1499
2.6791	7.3889
2.6709	7.5058
2.6626	7.5156
2.6545	7.4348
2.6463	7.3938
2.6382	7.449
2.6302	7.4717
2.6222	7.4697
2.6143	7.435
2.6064	7.334
2.5986	7.2153
2.5908	7.1614
2.583	7.0918
2.5753	7.0117
2.5677	7.0188
2.5601	7.0415
2.5525	7.0654
2.545	7.1435
2.5375	7.1372
2.5301	7.0781
2.5227	7.008
2.5154	7.0029
2.5081	7.0266
2.5008	7.0522
2.4936	7.0381
2.4864	7.0322
2.4793	6.9961
2.4722	6.8869
2.4651	6.8052
2.4581	6.8742
2.4511	6.9922
2.4442	7.0483
2.4373	7.0171
2.4305	7.0051
2.4236	7.1076
2.4169	7.1294
2.4101	6.9892
2.4034	6.5998
2.3967	6.2637
2.3901	6.175
2.3835	6.1916
2.377	6.2746
2.3704	6.2778
2.364	6.1057
2.3575	5.918
2.3511	5.7617
2.3447	5.5315
2.3384	5.3447
2.3321	5.2287
2.3258	5.1399
2.3195	5.178
2.3133	5.2881
2.3071	5.4494
2.301	5.498
2.2949	5.5166
2.2888	5.7285
2.2828	6.1479
2.2767	6.478
2.2708	6.5849
2.2648	6.6177
2.2589	6.6738
2.253	6.6235
2.2471	6.5903
2.2413	6.75
2.2355	7.1587
2.2297	7.7168
2.224	8.1636
2.2183	8.4604
2.2126	8.7178
2.207	8.8867
2.2013	9.0449
2.1957	9.1357
2.1902	9.2578
2.1846	9.3325
2.1791	9.3916
2.1736	9.4321
2.1682	9.4873
2.1628	9.5049
2.1574	9.5571
2.152	9.5298
2.1466	9.5547
2.1413	9.6211
2.136	9.6045
2.1308	9.6177
2.1255	9.6118
2.1203	9.6333
2.1151	9.6699
2.11	9.6411
2.1048	9.6533
2.0997	9.7021
2.0946	9.7114
2.0895	9.832
2.0845	9.8716
2.0795	9.833
