Name: Olivine (Fo29) (Fe+2,Mg)2SiO4
Type: Mineral
Class: Silicates
Subclass: Nesosilicates (Isolated tetrahedra); (Olivine Group)
Particle Size: Fine  (Less than 2 Micrometers)
Sample No.: olivine.3
Owner: JHU
Wavelength Range: IR
Origin: Kiglapait Intrusion, Labrador via Trude King #KI3291
Description: Initially, the specimen was contaminated with pyroxene,
Measurement: Transmission
X Units: Wavelength (micrometers)
Y Units: Transmittance (percent)
wavelength	value
25.0442	54.7108
24.3388	54.5624
23.6719	56.8319
23.0407	61.5545
22.4422	62.1424
21.8741	56.2616
21.334	43.3124
20.8199	31.1562
20.33	33.5487
19.8627	35.5321
19.4163	35.1366
18.9896	42.6015
18.5812	53.2001
18.19	56.7479
17.815	50.7626
17.4551	43.8641
17.1094	48.951
16.7772	60.7088
16.4576	72.7244
16.15	80.3299
15.8537	84.1892
15.568	85.8455
15.2925	87.0545
15.0265	87.8015
14.7697	87.6609
14.5214	87.0447
14.2814	86.3767
14.0492	85.5706
13.8244	84.1219
13.6067	82.7029
13.3957	80.6819
13.1912	78.1238
12.9929	74.9964
12.8004	70.9451
12.6135	65.661
12.432	58.3612
12.2557	47.7284
12.0843	31.9028
11.9176	37.6054
11.7555	27.1918
11.5977	17.4921
11.444	11.3174
11.2944	13.1425
11.1487	16.8461
11.0067	20.5966
10.8682	23.0839
10.7332	27.6991
10.6015	33.5019
10.473	22.5336
10.3476	25.3036
10.2251	29.3422
10.1056	36.6645
9.98873	46.1014
9.87458	55.2049
9.763	62.8084
9.65392	68.4529
9.54724	72.2781
9.44291	75.2317
9.34082	77.3382
9.24091	78.781
9.14312	80.6624
9.04739	82.8162
8.95363	84.5701
8.8618	86.1521
8.77183	87.2405
8.68368	88.325
8.59727	89.2234
8.51257	90.0535
8.42951	90.9795
8.34807	91.8057
8.26819	92.6025
8.18981	93.2139
8.11292	93.6631
8.03745	93.9563
7.96337	94.25
7.89064	94.4893
7.81924	94.5505
7.74911	94.6084
7.68023	94.6843
7.61256	94.783
7.54608	94.8269
7.48074	94.9343
7.41653	94.9138
7.35341	94.8445
7.29136	94.78
7.23034	94.5352
7.17033	94.5684
7.11132	94.4539
7.05327	94.4502
6.99616	94.3582
6.93996	94.1133
6.88467	94.0256
6.83024	93.9971
6.77667	93.8508
6.72393	93.7139
6.67201	93.5457
6.62089	93.4072
6.57054	93.2263
6.52095	92.9443
6.4721	92.6516
6.42398	92.335
6.37657	92.092
6.32986	91.6758
6.28382	91.2293
6.23845	90.6414
6.19373	89.9031
6.14965	89.4334
6.10619	89.2156
6.06334	89.4248
6.02109	89.6152
5.97942	89.749
5.93832	90.032
5.89778	90.1514
5.8578	90.085
5.81835	89.8367
5.77943	89.5593
5.74103	89.239
5.70314	89.0596
5.66574	88.9783
5.62883	89.0225
5.5924	88.8438
5.55644	88.7373
5.52093	88.625
5.48588	88.5283
5.45127	88.4373
5.41709	88.3115
5.38334	88.1621
5.35	88.033
5.31708	87.9785
5.28456	87.8692
5.25243	87.7522
5.2207	87.6004
5.18934	87.4514
5.15836	87.3152
5.12775	87.158
5.09749	86.9964
5.0676	86.9082
5.03805	86.7864
5.00884	86.6475
4.97998	86.5332
4.95144	86.3875
4.92322	86.2276
4.89533	86.0803
4.86775	85.9158
4.84048	85.7317
4.81351	85.5672
4.78684	85.4593
4.76047	85.3103
4.73439	85.1062
4.70859	84.9319
4.68306	84.7888
4.65782	84.6599
4.63284	84.4925
4.60814	84.3318
4.58369	84.1619
4.5595	84.0056
4.53557	83.7971
4.51188	83.6702
4.48845	83.5115
4.46525	83.3391
4.44229	83.1902
4.41957	83.0022
4.39708	82.8142
4.37481	82.6839
4.35277	82.469
4.33096	82.3172
4.30935	82.18
4.28797	81.9964
4.26679	81.844
4.24583	81.7117
4.22506	81.5232
4.2045	81.3543
4.18414	81.1814
4.16398	81.0086
4.14401	80.8474
4.12423	80.6624
4.10464	80.5335
4.08523	80.3167
4.066	80.097
4.04696	79.948
4.02809	79.803
4.0094	79.5857
3.99088	79.4207
3.97253	79.198
3.95435	79.0623
3.93634	78.866
3.91848	78.7019
3.90079	78.5647
3.88326	78.3143
3.86589	78.1233
3.84867	77.9749
3.8316	77.844
3.81468	77.6404
3.79791	77.4422
3.78129	77.2576
3.76482	77.075
3.74848	76.8504
3.73229	76.7249
3.71624	76.5643
3.70032	76.4026
3.68454	76.1795
3.6689	76.0447
3.65338	75.8187
3.638	75.657
3.62275	75.4314
3.60762	75.2859
3.59262	75.0921
3.57775	74.9163
3.56299	74.7112
3.54836	74.4813
3.53385	74.3494
3.51945	74.1092
3.50517	73.9246
3.49101	73.7625
3.47696	73.6526
3.46303	73.4197
3.4492	73.199
3.43549	72.9617
3.42188	72.7015
3.40838	72.5359
3.39499	72.4588
3.38171	72.2151
3.36852	72.0745
3.35544	71.9066
3.34246	71.6863
3.32958	71.5555
3.3168	71.3817
3.30411	71.1776
3.29153	70.9881
3.27903	70.7986
3.26664	70.5921
3.25433	70.4359
3.24212	70.1917
3.23	69.9534
3.21797	69.7772
3.20603	69.5838
3.19418	69.369
3.18241	69.1414
3.17074	68.9002
3.15914	68.7352
3.14763	68.5057
3.13621	68.2156
3.12487	67.9481
3.11361	67.8094
3.10243	67.5916
3.09133	67.2899
3.0803	67.0975
3.06936	66.8836
3.0585	66.6424
3.04771	66.5252
3.037	66.2235
3.02636	65.9969
3.0158	65.6756
3.00531	65.2225
2.99489	64.9032
2.98454	64.6131
2.97427	64.0369
2.96407	63.6414
2.95393	63.2284
2.94387	62.9588
2.93387	62.5662
2.92394	62.3436
2.91408	62.1141
2.90429	62.075
2.89456	62.0858
2.88489	62.0584
2.87529	62.2821
2.86576	62.2664
2.85628	62.328
2.84687	62.4334
2.83752	62.5369
2.82823	62.5721
2.81901	62.5916
2.80984	62.701
2.80073	62.7655
2.79168	62.9217
2.78269	63.1248
2.77376	63.2586
2.76488	63.2928
2.75606	63.4032
2.7473	63.5467
2.73859	63.6297
2.72994	63.6873
2.72134	63.6453
2.7128	63.5643
2.70431	63.3641
2.69587	63.3123
2.68748	63.2039
2.67915	63.1532
2.67087	63.0594
2.66264	62.8592
2.65446	62.742
2.64633	62.5975
2.63825	62.578
2.63021	62.4432
2.62223	62.3573
2.6143	62.1815
2.60641	62.0741
2.59857	61.9998
2.59078	61.8553
2.58304	61.7889
2.57534	61.6287
2.56768	61.5116
2.56008	61.3455
2.55251	61.2381
2.54499	61.1912
2.53752	61.0877
2.53009	60.9979
2.5227	60.9549
2.51536	60.91
2.50806	60.7127
2.5008	60.6737
2.49358	60.4862
2.4864	60.3944
2.47927	60.2362
2.47218	60.1873
2.46512	60.0174
2.45811	59.869
2.45114	59.7674
2.4442	59.7069
2.43731	59.7381
2.43045	59.4139
2.42363	59.4237
2.41685	59.3748
2.41011	59.1639
2.40341	59.0331
2.39674	59.1131
2.39011	59.0858
2.38352	58.8241
2.37696	58.7674
2.37044	58.617
2.36395	58.6795
2.35751	58.5565
2.35109	58.3612
2.34471	58.3299
2.33836	58.1717
2.33205	58.1092
2.32578	57.9706
2.31953	57.8749
2.31332	57.8924
2.30714	57.6014
2.301	57.6795
2.29489	57.5643
2.28881	57.4627
2.28276	57.2342
2.27675	57.0643
2.27076	56.9764
2.26481	56.7928
2.25889	56.9959
2.253	56.8514
2.24714	56.8163
2.24131	56.6639
2.23551	56.4608
2.22974	56.5389
2.224	56.2733
2.21829	56.4217
2.21261	56.285
2.20696	56.0936
2.20134	55.9452
2.19574	55.8553
2.19018	55.8085
2.18464	55.7928
2.17913	55.5077
2.17365	55.4413
2.16819	55.2577
2.16277	55.5038
2.15737	55.2811
2.15199	55.0038
2.14665	54.7577
2.14133	54.9686
2.13603	54.5663
2.13077	54.5311
2.12552	54.617
2.12031	54.6795
2.11512	54.4413
2.10995	54.328
2.10481	54.2186
2.0997	54.4139
2.09461	54.2186
2.08954	53.9413
2.0845	54.1288
2.07948	53.7694
