Name: Calcite CaCO3
Type: Mineral
Class: Carbonates
Particle Size: Coarse  (74-250 Micrometers)
Sample No.: calcite.2
Owner: JHU
Wavelength Range: IR
Origin: Hunt and Salisbury Collection #48B; Sample from Cherokee
Description: No solid sample is available for the specimen.
Measurement: Bidirectional reflectance
X Units: Wavelength (micrometers)
Y Units: Reflectance (percent)
wavelength	value
25.0442	4.8774
24.3388	3.52
23.6719	2.1706
23.0407	1.4233
22.4422	1.0715
21.8741	0.8008
21.334	0.8198
20.8199	0.9102
20.33	0.9028
19.8627	1.0103
19.4163	1.0393
18.9896	1.1831
18.5812	1.165
18.19	1.3049
17.815	1.3684
17.4551	1.4104
17.1094	1.4531
16.7772	1.531
16.4576	1.5964
16.15	1.7744
15.8537	1.8867
15.568	2.0146
15.2925	2.198
15.0265	2.4048
14.7697	2.512
14.5214	2.4268
14.2814	1.9343
14.0492	1.5583
13.8244	1.6565
13.6067	2.4934
13.3957	2.886
13.1912	2.7219
12.9929	2.3498
12.8004	2.2908
12.6135	2.4294
12.432	2.5395
12.2557	2.5762
12.0843	2.6973
11.9176	2.5935
11.7555	2.178
11.5977	2.3523
11.444	2.1746
11.2944	4.9653
11.1487	3.74
11.0067	2.4475
10.8682	2.457
10.7332	2.2258
10.6015	2.2178
10.473	2.3025
10.3476	2.4304
10.2251	2.2978
10.1056	2.2498
9.98873	2.1514
9.87458	2.103
9.763	2.1619
9.65392	2.3962
9.54724	2.4993
9.44291	2.5527
9.34082	2.4753
9.24091	2.3057
9.14312	2.5754
9.04739	2.5552
8.95363	2.4914
8.8618	2.4143
8.77183	2.3059
8.68368	2.1748
8.59727	2.041
8.51257	2.0478
8.42951	2.0764
8.34807	2.168
8.26819	2.2297
8.18981	2.2673
8.11292	2.2541
8.03745	2.2532
7.96337	2.2976
7.89064	2.2881
7.81924	2.3079
7.74911	2.3125
7.68023	2.2827
7.61256	2.2368
7.54608	2.2473
7.48074	2.271
7.41653	2.2788
7.35341	2.2703
7.29136	2.2327
7.23034	2.3052
7.17033	2.5569
7.11132	3.0142
7.05327	3.3433
6.99616	3.4153
6.93996	3.4736
6.88467	3.6501
6.83024	3.8826
6.77667	4.1758
6.72393	4.7261
6.67201	5.5205
6.62089	6.2773
6.57054	7.2378
6.52095	8.2707
6.4721	9.1916
6.42398	7.9262
6.37657	6.7856
6.32986	5.4282
6.28382	4.2964
6.23845	3.0901
6.19373	1.7917
6.14965	0.9783
6.10619	0.7224
6.06334	0.7483
6.02109	0.8232
5.97942	0.9009
5.93832	0.9727
5.89778	1.0395
5.8578	1.083
5.81835	1.0947
5.77943	1.1121
5.74103	1.1414
5.70314	1.2139
5.66574	1.3123
5.62883	1.3699
5.5924	1.1216
5.55644	0.8564
5.52093	1.394
5.48588	1.7849
5.45127	2.1291
5.41709	2.5024
5.38334	2.8638
5.35	3.1914
5.31708	3.5039
5.28456	3.7715
5.25243	3.9834
5.2207	4.156
5.18934	4.3249
5.15836	4.4487
5.12775	4.5051
5.09749	3.5566
5.0676	4.7468
5.03805	4.8115
5.00884	4.8003
4.97998	4.7851
4.95144	4.758
4.92322	4.7627
4.89533	4.7983
4.86775	4.8232
4.84048	4.8523
4.81351	4.8713
4.78684	4.8567
4.76047	4.6682
4.73439	4.2226
4.70859	3.2942
4.68306	2.7097
4.65782	2.7075
4.63284	3.3113
4.60814	3.8183
4.58369	3.9729
4.5595	4.0093
4.53557	4.029
4.51188	4.051
4.48845	4.2065
4.46525	4.5058
4.44229	4.7488
4.41957	4.979
4.39708	5.0808
4.37481	5.1238
4.35277	4.8992
4.33096	4.7995
4.30935	4.7981
4.28797	4.885
4.26679	4.8647
4.24583	4.7737
4.22506	4.6675
4.2045	4.5798
4.18414	4.4282
4.16398	4.2502
4.14401	4.0193
4.12423	3.7165
4.10464	3.4148
4.08523	3.1172
4.066	2.76
4.04696	2.3579
4.02809	1.9119
4.0094	1.6343
3.99088	1.3757
3.97253	1.3083
3.95435	1.3999
3.93634	1.6548
3.91848	1.7151
3.90079	1.7576
3.88326	1.7866
3.86589	1.7971
3.84867	1.8296
3.8316	1.9524
3.81468	2.2288
3.79791	2.8066
3.78129	3.7058
3.76482	4.1174
3.74848	4.3223
3.73229	4.5591
3.71624	4.7173
3.70032	4.7952
3.68454	4.8342
3.6689	4.8201
3.65338	4.7632
3.638	4.6628
3.62275	4.5449
3.60762	4.3545
3.59262	4.0278
3.57775	3.4824
3.56299	3.2651
3.54836	3.0107
3.53385	2.5351
3.51945	2.0193
3.50517	1.8044
3.49101	1.6873
3.47696	1.6064
3.46303	1.8142
3.4492	1.9285
3.43549	1.9431
3.42188	1.9451
3.40838	1.9463
3.39499	1.9197
3.38171	1.8845
3.36852	1.8635
3.35544	1.7751
3.34246	1.9248
3.32958	2.6865
3.3168	3.1973
3.30411	3.543
3.29153	3.8281
3.27903	4.0698
3.26664	4.3015
3.25433	4.4748
3.24212	4.626
3.23	4.7825
3.21797	4.9321
3.20603	5.0525
3.19418	5.1409
3.18241	5.1789
3.17074	5.0642
3.15914	4.7285
3.14763	4.6011
3.13621	4.741
3.12487	4.8218
3.11361	4.5654
3.10243	4.5791
3.09133	4.853
3.0803	5.1694
3.06936	5.3376
3.0585	5.4822
3.04771	5.6565
3.037	5.8
3.02636	5.9238
3.0158	6.0149
3.00531	6.102
2.99489	6.1975
2.98454	6.2554
2.97427	6.2707
2.96407	6.2722
2.95393	6.279
2.94387	6.2795
2.93387	6.3091
2.92394	6.3196
2.91408	6.3403
2.90429	6.3567
2.89456	6.365
2.88489	6.3872
2.87529	6.3667
2.86576	6.3503
2.85628	6.3193
2.84687	6.2732
2.83752	6.1506
2.82823	5.9687
2.81901	5.7419
2.80984	5.4365
2.80073	5.0723
2.79168	4.5774
2.78269	4.5537
2.77376	5.0913
2.76488	5.5974
2.75606	5.8679
2.7473	5.9927
2.73859	6.0539
2.72994	6.1814
2.72134	6.2893
2.7128	6.4707
2.70431	6.6809
2.69587	6.8288
2.68748	6.9624
2.67915	7.0354
2.67087	7.0715
2.66264	7.1174
2.65446	7.1592
2.64633	7.1618
2.63825	7.1689
2.63021	7.1269
2.62223	7.1299
2.6143	7.0947
2.60641	7.0281
2.59857	6.9905
2.59078	6.8706
2.58304	6.688
2.57534	6.5769
2.56768	6.3689
2.56008	5.9585
2.55251	5.362
2.54499	4.7834
2.53752	4.4724
2.53009	4.5517
2.5227	4.8176
2.51536	5.061
2.50806	5.1929
2.5008	5.2788
2.49358	5.3227
2.4864	5.4104
2.47927	5.5849
2.47218	5.8315
2.46512	6.091
2.45811	6.3291
2.45114	6.5058
2.4442	6.6382
2.43731	6.7685
2.43045	6.8657
2.42363	6.9592
2.41685	7.0459
2.41011	7.0801
2.40341	7.0859
2.39674	7.0705
2.39011	7.0874
2.38352	7.0432
2.37696	6.9487
2.37044	6.8137
2.36395	6.5683
2.35751	6.1929
2.35109	5.8071
2.34471	5.5957
2.33836	5.4995
2.33205	5.5896
2.32578	5.7607
2.31953	5.9199
2.31332	6.0339
2.30714	6.1113
2.301	6.1855
2.29489	6.2544
2.28881	6.3481
2.28276	6.467
2.27675	6.6108
2.27076	6.7265
2.26481	6.8437
2.25889	6.9306
2.253	7.0383
2.24714	7.0718
2.24131	7.167
2.23551	7.1929
2.22974	7.2344
2.224	7.2744
2.21829	7.2871
2.21261	7.3506
2.20696	7.3623
2.20134	7.3769
2.19574	7.3823
2.19018	7.375
2.18464	7.3774
2.17913	7.3359
2.17365	7.3464
2.16819	7.3318
2.16277	7.3098
2.15737	7.3208
2.15199	7.3147
2.14665	7.3359
2.14133	7.3874
2.13603	7.4118
2.13077	7.4287
2.12552	7.4289
2.12031	7.4446
2.11512	7.4541
2.10995	7.4721
2.10481	7.4507
2.0997	7.5166
2.09461	7.5403
2.08954	7.5268
2.0845	7.5449
2.07948	7.5256
