Name: Goethite a-Fe+3O(OH)
Type: Mineral
Class: Hydroxides
Subclass: (Goethite Group)
Particle Size: Fine  (less than 2 micrometers)
Sample No.: goethite.1
Owner: JHU
Wavelength Range: IR
Origin: Sample from Montreal, Wisconsin via the Smithsonian
Description: The sample consisted of a 4 cm x 2 cm x 2 cm cluster of
Measurement: Transmission
X Units: Wavelength (micrometers)
Y Units: Transmittance (percent)
wavelength	value
25.0442	27.5546
24.3388	26.3827
23.6719	28.58
23.0407	33.8612
22.4422	38.6483
21.8741	36.1386
21.334	36.9726
20.8199	40.1952
20.33	45.1591
19.8627	55.3573
19.4163	66.7303
18.9896	70.3773
18.5812	70.7069
18.19	67.6624
17.815	62.4183
17.4551	57.5082
17.1094	53.8168
16.7772	53.8143
16.4576	57.326
16.15	62.3563
15.8537	68.9315
15.568	74.3211
15.2925	75.7068
15.0265	73.5438
14.7697	76.7352
14.5214	83.7508
14.2814	86.1502
14.0492	86.0603
13.8244	84.8963
13.6067	83.7488
13.3957	80.7561
13.1912	76.3204
12.9929	70.2371
12.8004	61.2491
12.6135	51.3771
12.432	51.4042
12.2557	63.4122
12.0843	73.3963
11.9176	78.159
11.7555	78.8184
11.5977	77.209
11.444	72.9144
11.2944	64.7186
11.1487	54.8934
11.0067	56.2003
10.8682	68.501
10.7332	80.1551
10.6015	86.6897
10.473	89.7459
10.3476	90.168
10.2251	90.1299
10.1056	89.7793
9.98873	89.1123
9.87458	88.3779
9.763	87.6487
9.65392	87.9414
9.54724	87.9287
9.44291	87.4336
9.34082	87.4063
9.24091	87.6165
9.14312	87.8086
9.04739	88.1375
8.95363	88.4348
8.8618	88.5008
8.77183	87.9453
8.68368	87.7083
8.59727	87.822
8.51257	87.7095
8.42951	87.4932
8.34807	87.542
8.26819	87.6897
8.18981	87.5745
8.11292	87.4268
8.03745	86.9724
7.96337	86.5164
7.89064	86.221
7.81924	85.7715
7.74911	85.2102
7.68023	84.635
7.61256	84.2791
7.54608	83.8509
7.48074	83.3421
7.41653	82.8387
7.35341	82.3963
7.29136	81.9358
7.23034	81.4309
7.17033	80.5066
7.11132	79.993
7.05327	79.7874
6.99616	79.4336
6.93996	78.5135
6.88467	78.1639
6.83024	78.094
6.77667	77.8191
6.72393	77.4222
6.67201	77.1185
6.62089	76.7771
6.57054	76.1902
6.52095	75.5008
6.4721	74.9544
6.42398	74.4236
6.37657	73.8719
6.32986	73.3167
6.28382	72.5784
6.23845	71.4717
6.19373	69.9368
6.14965	68.9178
6.10619	68.5242
6.06334	67.8475
6.02109	67.3065
5.97942	69.1483
5.93832	71.076
5.89778	71.4012
5.8578	71.1492
5.81835	70.7139
5.77943	70.2396
5.74103	69.7117
5.70314	69.3436
5.66574	68.8729
5.62883	68.4427
5.5924	68.2799
5.55644	68.4363
5.52093	68.887
5.48588	69.262
5.45127	69.389
5.41709	69.306
5.38334	68.9603
5.35	68.6514
5.31708	68.306
5.28456	67.9715
5.25243	67.6644
5.2207	67.3724
5.18934	67.1614
5.15836	66.9139
5.12775	66.7283
5.09749	66.4632
5.0676	66.221
5.03805	66.026
5.00884	65.8043
4.97998	65.6109
4.95144	65.4449
4.92322	65.2493
4.89533	64.9871
4.86775	64.8165
4.84048	64.6331
4.81351	64.4259
4.78684	64.1995
4.76047	64.0057
4.73439	63.7755
4.70859	63.5345
4.68306	63.3202
4.65782	63.1287
4.63284	62.9144
4.60814	62.7371
4.58369	62.4832
4.5595	62.2772
4.53557	62.0887
4.51188	61.8856
4.48845	61.6773
4.46525	61.4737
4.44229	61.2454
4.41957	61.0206
4.39708	60.8182
4.37481	60.6214
4.35277	60.4041
4.33096	60.1595
4.30935	59.9976
4.28797	59.786
4.26679	59.5897
4.24583	59.3888
4.22506	59.1834
4.2045	58.8746
4.18414	58.6825
4.16398	58.4962
4.14401	58.3224
4.12423	58.0223
4.10464	57.8001
4.08523	57.6029
4.066	57.3656
4.04696	57.1742
4.02809	57.0492
4.0094	56.8153
3.99088	56.5526
3.97253	56.3626
3.95435	56.1717
3.93634	55.9464
3.91848	55.7694
3.90079	55.5326
3.88326	55.2245
3.86589	55.0453
3.84867	54.7806
3.8316	54.5423
3.81468	54.3517
3.79791	54.1605
3.78129	53.9369
3.76482	53.6459
3.74848	53.4471
3.73229	53.1368
3.71624	52.8849
3.70032	52.6417
3.68454	52.3597
3.6689	52.1134
3.65338	51.9335
3.638	51.7443
3.62275	51.4642
3.60762	51.2049
3.59262	51.0585
3.57775	50.9676
3.56299	50.6639
3.54836	50.4271
3.53385	50.2845
3.51945	50.0463
3.50517	49.6019
3.49101	49.548
3.47696	49.3031
3.46303	49.1046
3.4492	48.746
3.43549	48.3251
3.42188	47.6788
3.40838	47.5157
3.39499	47.3046
3.38171	46.7902
3.36852	46.3439
3.35544	45.8182
3.34246	45.2059
3.32958	44.6366
3.3168	43.9581
3.30411	43.1574
3.29153	42.3312
3.27903	41.3761
3.26664	40.3839
3.25433	39.4286
3.24212	38.7873
3.23	38.465
3.21797	38.6767
3.20603	39.287
3.19418	40.0951
3.18241	41.0287
3.17074	42.1732
3.15914	43.1151
3.14763	43.9447
3.13621	44.6093
3.12487	45.328
3.11361	46.0609
3.10243	46.7596
3.09133	47.4364
3.0803	48.1039
3.06936	48.705
3.0585	49.3065
3.04771	49.7489
3.037	50.1009
3.02636	50.3456
3.0158	50.4169
3.00531	50.3578
2.99489	50.2621
2.98454	50.1346
2.97427	49.7919
2.96407	49.2601
2.95393	49.0038
2.94387	48.7411
2.93387	48.3485
2.92394	48.0653
2.91408	47.9843
2.90429	48.0809
2.89456	48.1913
2.88489	48.4471
2.87529	48.7255
2.86576	48.7343
2.85628	49.0726
2.84687	49.2264
2.83752	49.3182
2.82823	49.348
2.81901	49.432
2.80984	49.4891
2.80073	49.496
2.79168	49.5887
2.78269	49.9501
2.77376	50.0975
2.76488	50.1776
2.75606	50.1781
2.7473	50.2225
2.73859	50.1664
2.72994	50.0565
2.72134	50.0355
2.7128	49.8612
2.70431	49.6014
2.69587	49.5048
2.68748	49.3827
2.67915	49.2284
2.67087	49.1019
2.66264	48.9891
2.65446	48.7167
2.64633	48.5082
2.63825	48.3871
2.63021	48.3207
2.62223	48.2245
2.6143	47.889
2.60641	47.8011
2.59857	47.5214
2.59078	47.618
2.58304	47.537
2.57534	47.2303
2.56768	46.9843
2.56008	46.9637
2.55251	46.8553
2.54499	46.7616
2.53752	46.577
2.53009	46.4745
2.5227	46.247
2.51536	46.1552
2.50806	46.0917
2.5008	46.0048
2.49358	45.7518
2.4864	45.7147
2.47927	45.6337
2.47218	45.4452
2.46512	45.5604
2.45811	45.3095
2.45114	45.0858
2.4442	44.872
2.43731	45.0136
2.43045	44.9696
2.42363	44.8134
2.41685	44.8007
2.41011	44.6757
2.40341	44.5389
2.39674	44.3124
2.39011	44.1766
2.38352	44.0282
2.37696	44.0956
2.37044	44.0087
2.36395	43.8612
2.35751	43.9784
2.35109	43.7421
2.34471	43.622
2.33836	43.7157
2.33205	43.3124
2.32578	43.2782
2.31953	43.2948
2.31332	43.0399
2.30714	42.9345
2.301	43.1561
2.29489	42.9725
2.28881	42.8397
2.28276	42.828
2.27675	42.6249
2.27076	42.579
2.26481	42.6132
2.25889	42.6141
2.253	42.3632
2.24714	42.3085
2.24131	42.2079
2.23551	42.0155
2.22974	42.1259
2.224	42.1015
2.21829	42.0868
2.21261	41.8915
2.20696	41.8397
2.20134	41.6991
2.19574	41.7323
2.19018	41.5018
2.18464	41.5546
2.17913	41.5722
2.17365	41.535
2.16819	41.2694
2.16277	41.1933
2.15737	41.2108
2.15199	41.0722
2.14665	41.0331
2.14133	40.8593
2.13603	40.6913
2.13077	40.8241
2.12552	40.7421
2.12031	40.7069
2.11512	40.6483
2.10995	40.4257
2.10481	40.33
2.0997	40.5311
2.09461	40.6425
2.08954	40.3983
2.0845	40.3358
2.07948	40.2733
