Name: Murchison.1
Type: Stony Meteorites
Class: Carbonaceous Chondrite
Subclass: CM2
Particle Size: 0-75 micrometers
Sample No.: Murchison.1
Owner: JHU
Origin: Meteorite seen to fall in Australia in 1969.  Field Museum of Chicago
Description: None.
Measurement: Bidirectional reflectance
X Units: Wavelength (micrometers)
Y Units: Reflectance (percent)
wavelength	value
25.044	0.749
24.339	1.0923
23.672	1.0378
23.041	1.0107
22.442	0.9087
21.874	0.8274
21.334	0.8005
20.82	0.7788
20.33	0.6926
19.863	0.7385
19.416	0.7119
18.99	0.6716
18.581	0.6482
18.19	0.5979
17.815	0.5635
17.455	0.5388
17.109	0.5205
16.777	0.4954
16.458	0.5479
16.15	0.5151
15.854	0.4958
15.568	0.4854
15.292	0.4243
15.027	0.4302
14.77	0.4475
14.521	0.4736
14.281	0.4929
14.049	0.5471
13.824	0.5918
13.607	0.6492
13.396	0.6958
13.191	0.7786
12.993	0.8437
12.8	0.8948
12.614	0.9456
12.432	0.9844
12.256	0.9868
12.084	0.9607
11.918	0.9155
11.755	0.8821
11.598	0.8933
11.444	0.9456
11.294	0.9373
11.149	0.9333
11.007	0.884
10.868	0.8311
10.733	0.802
10.602	0.7549
10.473	0.7078
10.348	0.6533
10.225	0.6221
10.106	0.6077
9.9887	0.564
9.8746	0.5488
9.763	0.5254
9.6539	0.5098
9.5472	0.5024
9.4429	0.4883
9.3408	0.4673
9.2409	0.428
9.1431	0.4028
9.0474	0.4163
8.9536	0.4404
8.8618	0.4673
8.7718	0.4873
8.6837	0.5002
8.5973	0.5471
8.5126	0.5833
8.4295	0.6482
8.3481	0.7078
8.2682	0.7874
8.1898	0.8635
8.1129	0.9365
8.0374	1.0059
7.9634	1.0657
7.8906	1.1113
7.8192	1.1526
7.7491	1.1851
7.6802	1.217
7.6126	1.2356
7.5461	1.2529
7.4807	1.2715
7.4165	1.2915
7.3534	1.3066
7.2914	1.3147
7.2303	1.3164
7.1703	1.3259
7.1113	1.3184
7.0533	1.3188
6.9962	1.3379
6.94	1.3696
6.8847	1.3906
6.8302	1.4099
6.7767	1.4534
6.7239	1.4819
6.672	1.4941
6.6209	1.5124
6.5705	1.5029
6.5209	1.4871
6.4721	1.4695
6.424	1.4482
6.3766	1.4309
6.3299	1.4258
6.2838	1.4224
6.2385	1.4138
6.1937	1.3918
6.1496	1.3745
6.1062	1.3874
6.0633	1.3982
6.0211	1.4099
5.9794	1.4348
5.9383	1.4763
5.8978	1.5364
5.8578	1.592
5.8184	1.6309
5.7794	1.6667
5.741	1.6885
5.7031	1.696
5.6657	1.6948
5.6288	1.6948
5.5924	1.71
5.5564	1.7395
5.5209	1.7629
5.4859	1.7705
5.4513	1.7747
5.4171	1.7812
5.3833	1.7908
5.35	1.7959
5.3171	1.8105
5.2846	1.8123
5.2524	1.814
5.2207	1.8123
5.1893	1.8157
5.1584	1.8176
5.1277	1.8267
5.0975	1.8291
5.0676	1.8396
5.038	1.8501
5.0088	1.853
4.98	1.8581
4.9514	1.8567
4.9232	1.8577
4.8953	1.8674
4.8678	1.8806
4.8405	1.8872
4.8135	1.8933
4.7868	1.8982
4.7605	1.8987
4.7344	1.9026
4.7086	1.9055
4.6831	1.9094
4.6578	1.9136
4.6328	1.908
4.6081	1.9145
4.5837	1.9148
4.5595	1.9204
4.5356	1.915
4.5119	1.9111
4.4884	1.9104
4.4652	1.9133
4.4423	1.9155
4.4196	1.9114
4.3971	1.916
4.3748	1.9116
4.3528	1.9158
4.331	1.9116
4.3094	1.9131
4.288	1.9131
4.2668	1.9126
4.2458	1.9185
4.2251	1.9255
4.2045	1.918
4.1841	1.9192
4.164	1.9133
4.144	1.9131
4.1242	1.9102
4.1046	1.9131
4.0852	1.915
4.066	1.9141
4.047	1.904
4.0281	1.9028
4.0094	1.897
3.9909	1.8933
3.9725	1.8967
3.9544	1.8838
3.9363	1.8796
3.9185	1.8826
3.9008	1.8765
3.8833	1.8691
3.8659	1.8677
3.8487	1.8567
3.8316	1.8513
3.8147	1.8459
3.7979	1.8396
3.7813	1.8357
3.7648	1.8237
3.7485	1.8227
3.7323	1.8186
3.7162	1.8098
3.7003	1.8025
3.6845	1.792
3.6689	1.7856
3.6534	1.7795
3.638	1.7717
3.6227	1.7734
3.6076	1.761
3.5926	1.7524
3.5777	1.7466
3.563	1.7305
3.5484	1.7197
3.5338	1.7075
3.5195	1.6816
3.5052	1.646
3.491	1.6399
3.477	1.6318
3.463	1.6279
3.4492	1.6123
3.4355	1.5854
3.4219	1.5474
3.4084	1.5352
3.395	1.542
3.3817	1.5361
3.3685	1.5371
3.3554	1.54
3.3425	1.5437
3.3296	1.5361
3.3168	1.5242
3.3041	1.5134
3.2915	1.5017
3.279	1.4832
3.2666	1.4729
3.2543	1.4573
3.2421	1.4446
3.23	1.4292
3.218	1.4087
3.206	1.3999
3.1942	1.3826
3.1824	1.3662
3.1707	1.3469
3.1591	1.3247
3.1476	1.3027
3.1362	1.2898
3.1249	1.2734
3.1136	1.2539
3.1024	1.2405
3.0913	1.2197
3.0803	1.1912
3.0694	1.1814
3.0585	1.166
3.0477	1.155
3.037	1.1406
3.0264	1.1309
3.0158	1.1179
3.0053	1.106
2.9949	1.0981
2.9845	1.0845
2.9743	1.0715
2.9641	1.0608
2.9539	1.0571
2.9439	1.0369
2.9339	1.0381
2.9239	1.0393
2.9141	1.0339
2.9043	1.0325
2.8946	1.0344
2.8849	1.0203
2.8753	1.0093
2.8658	0.9983
2.8563	0.9832
2.8469	0.9668
2.8375	0.9551
2.8282	0.9377
2.819	0.9399
2.8098	0.9204
2.8007	0.925
2.7917	0.915
2.7827	0.9204
2.7738	0.9153
2.7649	0.9255
2.7561	0.9326
2.7473	0.9392
2.7386	0.9509
2.7299	0.9648
2.7213	0.9412
2.7128	0.9656
2.7043	1.1523
2.6959	1.4153
2.6875	1.5508
2.6791	1.606
2.6709	1.6145
2.6626	1.635
2.6545	1.6201
2.6463	1.6299
2.6382	1.6352
2.6302	1.6448
2.6222	1.6377
2.6143	1.6372
2.6064	1.6404
2.5986	1.6406
2.5908	1.6382
2.583	1.6355
2.5753	1.6211
2.5677	1.6384
2.5601	1.6213
2.5525	1.6172
2.545	1.6199
2.5375	1.6191
2.5301	1.6211
2.5227	1.6001
2.5154	1.6094
2.5081	1.6123
2.5008	1.5896
2.4936	1.6091
2.4864	1.6033
2.4793	1.5957
2.4722	1.6106
2.4651	1.5925
2.4581	1.6103
2.4511	1.5923
2.4442	1.5896
2.4373	1.5991
2.4305	1.5874
2.4236	1.5955
2.4169	1.6013
2.4101	1.5884
2.4034	1.5918
2.3967	1.5894
2.3901	1.593
2.3835	1.5801
2.377	1.584
2.3704	1.5842
2.364	1.5845
2.3575	1.5671
2.3511	1.5845
2.3447	1.571
2.3384	1.5818
2.3321	1.583
2.3258	1.5671
2.3195	1.5693
2.3133	1.5884
2.3071	1.5818
2.301	1.5745
2.2949	1.5872
2.2888	1.5779
2.2828	1.5796
2.2767	1.5784
2.2708	1.6045
2.2648	1.5862
2.2589	1.5701
2.253	1.5706
2.2471	1.573
2.2413	1.585
2.2355	1.5891
2.2297	1.6194
2.224	1.5923
2.2183	1.6082
2.2126	1.5915
2.207	1.5774
2.2013	1.6096
2.1957	1.5762
2.1902	1.6018
2.1846	1.5923
2.1791	1.606
2.1736	1.5955
2.1682	1.6062
2.1628	1.6299
2.1574	1.6062
2.152	1.6167
2.1466	1.6091
2.1413	1.6352
2.136	1.6282
2.1308	1.6008
2.1255	1.6328
2.1203	1.623
2.1151	1.6282
2.11	1.6404
2.1048	1.5945
2.0997	1.6179
2.0946	1.6099
2.0895	1.6291
2.0845	1.6335
2.0795	1.6304
