Name: Dolomite CaMg(CO3)2
Type: Mineral
Class: Carbonates
Particle Size: Fine  (0-74 Micrometers)
Sample No.: dolomite.2
Owner: JHU
Wavelength Range: IR
Origin: Hunt and Salisbury Collection #102B;  Sample from Lee,
Description: The sample appeared to be pure white dolomite in hand
Measurement: Bidirectional reflectance
X Units: Wavelength (micrometers)
Y Units: Reflectance (percent)
wavelength	value
25.0442	2.581
24.3388	2.706
23.6719	2.4414
23.0407	2.7327
22.4422	2.3447
21.8741	1.6636
21.334	0.8196
20.8199	0.3848
20.33	0.2998
19.8627	0.5186
19.4163	0.7324
18.9896	1.0762
18.5812	1.5005
18.19	1.9009
17.815	2.4722
17.4551	2.9692
17.1094	3.4853
16.7772	3.9272
16.4576	4.7788
16.15	5.4643
15.8537	5.5508
15.568	5.3115
15.2925	5.5215
15.0265	6.05
14.7697	6.5173
14.5214	6.6601
14.2814	6.5979
14.0492	5.1689
13.8244	2.2153
13.6067	1.384
13.3957	6.164
13.1912	8.8315
12.9929	10.2092
12.8004	10.6008
12.6135	10.9109
12.432	11.0901
12.2557	11.0644
12.0843	10.8113
11.9176	10.3103
11.7555	6.0359
11.5977	6.28
11.444	2.2639
11.2944	2.5105
11.1487	8.3508
11.0067	9.094
10.8682	9.1599
10.7332	9.2888
10.6015	9.289
10.473	9.4128
10.3476	9.3733
10.2251	9.1372
10.1056	8.8542
9.98873	8.7727
9.87458	8.4997
9.763	8.0115
9.65392	7.7829
9.54724	8.0722
9.44291	8.301
9.34082	7.7158
9.24091	7.7781
9.14312	7.7717
9.04739	7.3779
8.95363	7.3496
8.8618	7.0791
8.77183	7.0002
8.68368	6.6472
8.59727	6.6101
8.51257	5.9057
8.42951	5.1621
8.34807	5.3716
8.26819	5.8533
8.18981	5.1748
8.11292	4.4636
8.03745	4.6855
7.96337	4.7244
7.89064	4.7117
7.81924	4.5972
7.74911	3.957
7.68023	3.6291
7.61256	3.6829
7.54608	3.3933
7.48074	2.9101
7.41653	2.7646
7.35341	2.4431
7.29136	2.1023
7.23034	1.8223
7.17033	1.6719
7.11132	1.5996
7.05327	1.8684
6.99616	2.1916
6.93996	2.1274
6.88467	2.1306
6.83024	2.1829
6.77667	2.2566
6.72393	2.3723
6.67201	2.5215
6.62089	2.8491
6.57054	3.1506
6.52095	3.5713
6.4721	4.1059
6.42398	4.7585
6.37657	5.6802
6.32986	5.6374
6.28382	4.448
6.23845	3.5979
6.19373	3.4958
6.14965	3.3337
6.10619	2.7151
6.06334	2.5745
6.02109	2.6382
5.97942	2.9287
5.93832	3.2131
5.89778	3.5813
5.8578	3.8943
5.81835	4.1235
5.77943	4.3115
5.74103	4.4553
5.70314	4.7903
5.66574	4.7983
5.62883	4.5317
5.5924	4.082
5.55644	3.1728
5.52093	2.0198
5.48588	1.9158
5.45127	4.1807
5.41709	6.8999
5.38334	8.4038
5.35	9.2402
5.31708	9.7094
5.28456	10.1936
5.25243	10.8713
5.2207	11.4848
5.18934	11.9267
5.15836	12.3401
5.12775	12.6106
5.09749	12.7768
5.0676	11.9045
5.03805	12.9533
5.00884	13.4143
4.97998	13.5454
4.95144	13.6311
4.92322	13.7165
4.89533	13.7656
4.86775	13.8037
4.84048	13.8105
4.81351	13.82
4.78684	13.8108
4.76047	13.7463
4.73439	13.6225
4.70859	13.2902
4.68306	12.5586
4.65782	11.0925
4.63284	10.5432
4.60814	10.509
4.58369	11.2505
4.5595	11.9177
4.53557	12.3401
4.51188	12.6926
4.48845	13.2983
4.46525	13.0461
4.44229	12.5002
4.41957	12.717
4.39708	13.25
4.37481	13.6577
4.35277	13.8772
4.33096	13.2041
4.30935	12.9082
4.28797	12.8122
4.26679	12.9736
4.24583	13.1096
4.22506	13.1345
4.2045	13.2849
4.18414	13.3115
4.16398	13.0703
4.14401	12.7473
4.12423	12.7177
4.10464	12.5376
4.08523	12.1689
4.066	11.5544
4.04696	10.7082
4.02809	9.4084
4.0094	7.4973
3.99088	5.312
3.97253	3.0176
3.95435	2.5444
3.93634	2.731
3.91848	3.0019
3.90079	4.0132
3.88326	4.4836
3.86589	4.8909
3.84867	6.553
3.8316	7.0188
3.81468	5.5222
3.79791	5.1509
3.78129	6.6306
3.76482	8.2929
3.74848	10.4111
3.73229	12.0149
3.71624	12.5285
3.70032	12.9069
3.68454	13.2719
3.6689	13.4741
3.65338	13.5874
3.638	13.6523
3.62275	13.6545
3.60762	13.6223
3.59262	13.5686
3.57775	13.4377
3.56299	13.0512
3.54836	11.9148
3.53385	12.0825
3.51945	10.903
3.50517	8.6338
3.49101	6.0261
3.47696	4.8784
3.46303	4.2546
3.4492	3.9492
3.43549	4.7353
3.42188	5.7637
3.40838	6.0788
3.39499	6.3757
3.38171	6.8049
3.36852	7.0129
3.35544	6.2317
3.34246	5.6943
3.32958	5.7287
3.3168	5.3218
3.30411	5.1013
3.29153	8.8281
3.27903	10.9555
3.26664	11.7527
3.25433	12.2182
3.24212	12.5866
3.23	12.864
3.21797	13.0547
3.20603	13.2082
3.19418	13.312
3.18241	13.3933
3.17074	13.467
3.15914	13.4729
3.14763	13.2592
3.13621	13.0495
3.12487	13.0544
3.11361	13.082
3.10243	13.0742
3.09133	12.9511
3.0803	12.863
3.06936	13.0212
3.0585	13.1914
3.04771	13.2631
3.037	13.312
3.02636	13.4587
3.0158	13.5966
3.00531	13.6831
2.99489	13.7146
2.98454	13.7238
2.97427	13.7487
2.96407	13.7895
2.95393	13.813
2.94387	13.8291
2.93387	13.8173
2.92394	13.8344
2.91408	13.8759
2.90429	13.9228
2.89456	13.9687
2.88489	14.0214
2.87529	14.0124
2.86576	14.0439
2.85628	14.1242
2.84687	14.1193
2.83752	14.1508
2.82823	14.1494
2.81901	14.1406
2.80984	14.1201
2.80073	14.0005
2.79168	13.7954
2.78269	13.5495
2.77376	13.1767
2.76488	13.0815
2.75606	13.3198
2.7473	13.7246
2.73859	14.0058
2.72994	14.33
2.72134	14.4775
2.7128	14.7622
2.70431	14.978
2.69587	15.041
2.68748	15.1508
2.67915	15.3303
2.67087	15.4384
2.66264	15.6391
2.65446	15.7216
2.64633	15.7641
2.63825	15.7968
2.63021	15.7487
2.62223	15.8369
2.6143	15.8657
2.60641	15.8188
2.59857	15.8784
2.59078	15.8877
2.58304	15.84
2.57534	15.8398
2.56768	15.7512
2.56008	15.6572
2.55251	15.5219
2.54499	15.2348
2.53752	14.6975
2.53009	14.1611
2.5227	13.8564
2.51536	13.7219
2.50806	13.8332
2.5008	13.9895
2.49358	14.1596
2.4864	14.3672
2.47927	14.5835
2.47218	14.6533
2.46512	14.6831
2.45811	14.7773
2.45114	14.927
2.4442	15.135
2.43731	15.3608
2.43045	15.5324
2.42363	15.6748
2.41685	15.8242
2.41011	15.9087
2.40341	15.9624
2.39674	15.9834
2.39011	16.0012
2.38352	16.0561
2.37696	16.0966
2.37044	16.163
2.36395	16.1503
2.35751	16.1613
2.35109	16.0393
2.34471	15.7788
2.33836	15.4865
2.33205	15.1936
2.32578	15.0266
2.31953	15.0234
2.31332	15.1047
2.30714	15.1818
2.301	15.2551
2.29489	15.3381
2.28881	15.4843
2.28276	15.5214
2.27675	15.549
2.27076	15.5712
2.26481	15.6826
2.25889	15.7844
2.253	15.9101
2.24714	15.9775
2.24131	16.0998
2.23551	16.1723
2.22974	16.2099
2.224	16.1904
2.21829	16.2482
2.21261	16.3027
2.20696	16.2705
2.20134	16.413
2.19574	16.3955
2.19018	16.4384
2.18464	16.4751
2.17913	16.4253
2.17365	16.4785
2.16819	16.4912
2.16277	16.4921
2.15737	16.4672
2.15199	16.3813
2.14665	16.3764
2.14133	16.3701
2.13603	16.4121
2.13077	16.4741
2.12552	16.4282
2.12031	16.4404
2.11512	16.4736
2.10995	16.4541
2.10481	16.4326
2.0997	16.4917
2.09461	16.497
2.08954	16.5908
2.0845	16.5449
2.07948	16.541
