Name: Olivine (Fo92) (Fe+2,Mg)2SiO4
Type: Mineral
Class: Silicates
Subclass: Nesosilicates (Isolated tetrahedra); (Olivine Group)
Particle Size: Fine (0-74 Micrometers)
Sample No.: olivine.12
Owner: JHU
Wavelength Range: IR
Origin: Ward's Natural Science Establishment.
Description: The hand sample consisted of small, translucent green
Measurement: Bidirectional reflectance
X Units: Wavelength (micrometers)
Y Units: Reflectance (percent)
wavelength	value
25.0442	2.2734
24.3388	2.9717
23.6719	3.4995
23.0407	2.9692
22.4422	2.5435
21.8741	1.7039
21.334	1.624
20.8199	1.3364
20.33	1.5217
19.8627	2.2681
19.4163	2.4536
18.9896	2.8901
18.5812	2.553
18.19	2.4905
17.815	2.3452
17.4551	1.967
17.1094	1.4414
16.7772	1.1548
16.4576	1.2541
16.15	1.5913
15.8537	1.8606
15.568	1.8979
15.2925	1.5618
15.0265	1.4917
14.7697	1.6047
14.5214	1.8425
14.2814	2.155
14.0492	2.4206
13.8244	2.6753
13.6067	2.8733
13.3957	2.9509
13.1912	3.0298
12.9929	3.0376
12.8004	2.9663
12.6135	2.7192
12.432	2.3867
12.2557	2.0561
12.0843	1.7153
11.9176	1.4988
11.7555	1.593
11.5977	1.8911
11.444	2.4966
11.2944	2.8916
11.1487	3.0808
11.0067	3.2793
10.8682	3.4924
10.7332	3.7497
10.6015	3.9409
10.473	3.7732
10.3476	2.9748
10.2251	2.5801
10.1056	3.0911
9.98873	2.9219
9.87458	3.0334
9.763	3.2251
9.65392	3.4934
9.54724	3.8818
9.44291	4.2849
9.34082	4.7295
9.24091	4.2512
9.14312	3.4441
9.04739	2.8613
8.95363	2.5373
8.8618	2.4849
8.77183	2.6872
8.68368	2.979
8.59727	3.2532
8.51257	3.5981
8.42951	3.8413
8.34807	4.1643
8.26819	4.4067
8.18981	4.5981
8.11292	4.9714
8.03745	5.2585
7.96337	5.5364
7.89064	5.6736
7.81924	5.6921
7.74911	5.7695
7.68023	5.8518
7.61256	5.8093
7.54608	5.7644
7.48074	5.9536
7.41653	6.2253
7.35341	6.4826
7.29136	6.7466
7.23034	6.7903
7.17033	6.8955
7.11132	7.0945
7.05327	7.0923
6.99616	7.3838
6.93996	7.7561
6.88467	7.9917
6.83024	7.9958
6.77667	8.052
6.72393	8.3645
6.67201	8.6201
6.62089	8.7849
6.57054	8.79
6.52095	8.7925
6.4721	8.8489
6.42398	8.8674
6.37657	8.9372
6.32986	8.9761
6.28382	8.8452
6.23845	8.8681
6.19373	8.945
6.14965	8.9331
6.10619	8.6892
6.06334	7.9363
6.02109	6.5451
5.97942	6.2707
5.93832	6.5537
5.89778	6.6179
5.8578	6.6802
5.81835	6.8127
5.77943	6.99
5.74103	6.9182
5.70314	6.405
5.66574	5.7065
5.62883	5.2793
5.5924	5.6221
5.55644	6.4805
5.52093	6.7475
5.48588	6.7324
5.45127	6.6831
5.41709	6.874
5.38334	7.2117
5.35	7.4905
5.31708	7.6758
5.28456	7.7409
5.25243	7.7256
5.2207	7.6946
5.18934	7.9382
5.15836	8.2424
5.12775	8.5158
5.09749	8.7278
5.0676	8.8847
5.03805	8.9023
5.00884	8.8098
4.97998	8.6108
4.95144	8.3579
4.92322	8.6291
4.89533	9.2666
4.86775	10.1047
4.84048	10.6208
4.81351	10.8564
4.78684	11.019
4.76047	11.1062
4.73439	11.1897
4.70859	11.2561
4.68306	11.3186
4.65782	11.3689
4.63284	11.4111
4.60814	11.4677
4.58369	11.5256
4.5595	11.5866
4.53557	11.6494
4.51188	11.6875
4.48845	11.7466
4.46525	11.7973
4.44229	11.8457
4.41957	11.9055
4.39708	11.9436
4.37481	11.9861
4.35277	12.0268
4.33096	12.08
4.30935	12.1198
4.28797	12.1452
4.26679	12.1965
4.24583	12.259
4.22506	12.312
4.2045	12.3518
4.18414	12.3977
4.16398	12.4358
4.14401	12.4699
4.12423	12.5012
4.10464	12.5376
4.08523	12.5778
4.066	12.603
4.04696	12.6086
4.02809	12.5935
4.0094	12.5952
3.99088	12.6335
3.97253	12.677
3.95435	12.7219
3.93634	12.7444
3.91848	12.7824
3.90079	12.7907
3.88326	12.8029
3.86589	12.801
3.84867	12.8213
3.8316	12.8281
3.81468	12.8425
3.79791	12.8549
3.78129	12.8818
3.76482	12.9192
3.74848	12.9414
3.73229	12.9631
3.71624	12.9843
3.70032	13.0136
3.68454	13.0332
3.6689	13.0429
3.65338	13.0669
3.638	13.0866
3.62275	13.104
3.60762	13.1308
3.59262	13.134
3.57775	13.1421
3.56299	13.1418
3.54836	13.146
3.53385	13.124
3.51945	13.0791
3.50517	12.9272
3.49101	13.0024
3.47696	13.0595
3.46303	13.0649
3.4492	13.0344
3.43549	12.9555
3.42188	12.7683
3.40838	12.8161
3.39499	12.9597
3.38171	12.9839
3.36852	13.0234
3.35544	13.0896
3.34246	13.136
3.32958	13.1535
3.3168	13.1665
3.30411	13.176
3.29153	13.1706
3.27903	13.1845
3.26664	13.1894
3.25433	13.1709
3.24212	13.1875
3.23	13.1543
3.21797	13.1565
3.20603	13.1582
3.19418	13.1484
3.18241	13.1374
3.17074	13.1406
3.15914	13.1323
3.14763	13.1318
3.13621	13.1091
3.12487	13.1025
3.11361	13.1101
3.10243	13.0932
3.09133	13.091
3.0803	13.094
3.06936	13.0857
3.0585	13.062
3.04771	13.0647
3.037	13.0739
3.02636	13.0659
3.0158	13.0434
3.00531	13.0439
2.99489	13.0366
2.98454	13.0434
2.97427	13.0378
2.96407	13.0263
2.95393	13.0197
2.94387	13.0317
2.93387	13.0354
2.92394	13.0244
2.91408	13.0354
2.90429	13.0481
2.89456	13.0788
2.88489	13.0969
2.87529	13.0871
2.86576	13.0905
2.85628	13.133
2.84687	13.1548
2.83752	13.1694
2.82823	13.1757
2.81901	13.2058
2.80984	13.2351
2.80073	13.2612
2.79168	13.3222
2.78269	13.3681
2.77376	13.4143
2.76488	13.4157
2.75606	13.3808
2.7473	13.3298
2.73859	13.1479
2.72994	13.7265
2.72134	13.7778
2.7128	13.8869
2.70431	13.9895
2.69587	14.0647
2.68748	14.1599
2.67915	14.2199
2.67087	14.2436
2.66264	14.3071
2.65446	14.3188
2.64633	14.3425
2.63825	14.3557
2.63021	14.3315
2.62223	14.3552
2.6143	14.363
2.60641	14.3332
2.59857	14.3715
2.59078	14.425
2.58304	14.395
2.57534	14.4399
2.56768	14.413
2.56008	14.4057
2.55251	14.4257
2.54499	14.4504
2.53752	14.4616
2.53009	14.4321
2.5227	14.4514
2.51536	14.469
2.50806	14.476
2.5008	14.4704
2.49358	14.4755
2.4864	14.4958
2.47927	14.52
2.47218	14.5078
2.46512	14.5117
2.45811	14.5214
2.45114	14.5212
2.4442	14.5295
2.43731	14.5346
2.43045	14.5554
2.42363	14.5764
2.41685	14.5898
2.41011	14.5901
2.40341	14.5998
2.39674	14.5847
2.39011	14.5839
2.38352	14.5898
2.37696	14.6215
2.37044	14.6377
2.36395	14.6267
2.35751	14.6303
2.35109	14.6491
2.34471	14.6445
2.33836	14.6516
2.33205	14.6567
2.32578	14.6611
2.31953	14.6777
2.31332	14.6582
2.30714	14.6865
2.301	14.6987
2.29489	14.7216
2.28881	14.7192
2.28276	14.7109
2.27675	14.7234
2.27076	14.6997
2.26481	14.7338
2.25889	14.7539
2.253	14.768
2.24714	14.768
2.24131	14.7255
2.23551	14.7807
2.22974	14.7378
2.224	14.7353
2.21829	14.7744
2.21261	14.7465
2.20696	14.7509
2.20134	14.7544
2.19574	14.7832
2.19018	14.7924
2.18464	14.7773
2.17913	14.771
2.17365	14.7544
2.16819	14.8076
2.16277	14.7915
2.15737	14.792
2.15199	14.7295
2.14665	14.7385
2.14133	14.7243
2.13603	14.7468
2.13077	14.78
2.12552	14.7873
2.12031	14.8007
2.11512	14.8046
2.10995	14.7912
2.10481	14.8178
2.0997	14.7915
2.09461	14.809
2.08954	14.8017
2.0845	14.8056
2.07948	14.7661
