Name: Uberaba
Type: Stony Meteorites
Class: Ordinary Chondrite
Subclass: H5
Particle Size: 0-75 micrometers
Sample No.: Uberaba
Owner: JHU
Origin: Meteorite seen to fall in 1903.  Smithsonian sample No. USNM 5845.
Description: None.
Measurement: Bidirectional reflectance
X Units: Wavelength (micrometers)
Y Units: Reflectance (percent)
wavelength	value
25.044	0.8267
24.339	0.9114
23.672	0.8306
23.041	0.7173
22.442	0.7637
21.874	0.6648
21.334	0.6328
20.82	0.7068
20.33	0.8293
19.863	0.8874
19.416	0.8772
18.99	0.8098
18.581	0.7375
18.19	0.7368
17.815	0.6953
17.455	0.7292
17.109	0.7192
16.777	0.675
16.458	0.6624
16.15	0.6802
15.854	0.6582
15.568	0.5537
15.292	0.5562
15.027	0.6926
14.77	0.7908
14.521	0.8611
14.281	1.0374
14.049	1.1311
13.824	1.0659
13.607	1.156
13.396	1.3372
13.191	1.5874
12.993	1.7156
12.8	1.7473
12.614	1.7466
12.432	1.7463
12.256	1.6289
12.084	1.2827
11.918	0.9851
11.755	0.9336
11.598	0.9519
11.444	1.0596
11.294	1.0879
11.149	1.0217
11.007	0.9978
10.868	1.0286
10.733	1.0776
10.602	1.0525
10.473	0.9714
10.348	0.8928
10.225	0.8694
10.106	0.8359
9.9887	0.8091
9.8746	0.7844
9.763	0.7432
9.6539	0.8115
9.5472	0.8967
9.4429	0.9338
9.3408	0.926
9.2409	0.8677
9.1431	0.8455
9.0474	0.8591
8.9536	0.8215
8.8618	0.7957
8.7718	0.7642
8.6837	0.7534
8.5973	0.7522
8.5126	0.8198
8.4295	0.9658
8.3481	1.2021
8.2682	1.5024
8.1898	1.7727
8.1129	1.9871
8.0374	2.1843
7.9634	2.3652
7.8906	2.5222
7.8192	2.6594
7.7491	2.793
7.6802	2.8997
7.6126	2.9712
7.5461	3.0691
7.4807	3.167
7.4165	3.2685
7.3534	3.3899
7.2914	3.4817
7.2303	3.5547
7.1703	3.623
7.1113	3.6719
7.0533	3.7195
6.9962	3.8042
6.94	3.8889
6.8847	3.9621
6.8302	4.0486
6.7767	4.1406
6.7239	4.1953
6.672	4.1951
6.6209	4.1733
6.5705	4.1738
6.5209	4.1572
6.4721	4.1077
6.424	4.0412
6.3766	3.9678
6.3299	3.9055
6.2838	3.9131
6.2385	3.9641
6.1937	4.0349
6.1496	4.1182
6.1062	4.1531
6.0633	4.0893
6.0211	4.0049
5.9794	4.0954
5.9383	4.2798
5.8978	4.406
5.8578	4.48
5.8184	4.5256
5.7794	4.5361
5.741	4.5369
5.7031	4.5007
5.6657	4.4045
5.6288	4.407
5.5924	4.5603
5.5564	4.7202
5.5209	4.7746
5.4859	4.7678
5.4513	4.7851
5.4171	4.8542
5.3833	4.948
5.35	5.0134
5.3171	5.0315
5.2846	5.0115
5.2524	4.9885
5.2207	4.9846
5.1893	4.9824
5.1584	4.9888
5.1277	5.0486
5.0975	5.1245
5.0676	5.2007
5.038	5.2632
5.0088	5.3027
4.98	5.3176
4.9514	5.3515
4.9232	5.4194
4.8953	5.5049
4.8678	5.5671
4.8405	5.6206
4.8135	5.6697
4.7868	5.7239
4.7605	5.7688
4.7344	5.8
4.7086	5.831
4.6831	5.8552
4.6578	5.8913
4.6328	5.9328
4.6081	5.9753
4.5837	6.0107
4.5595	6.0386
4.5356	6.0627
4.5119	6.0818
4.4884	6.0984
4.4652	6.1128
4.4423	6.1279
4.4196	6.1406
4.3971	6.155
4.3748	6.1667
4.3528	6.1716
4.331	6.1745
4.3094	6.1811
4.288	6.1831
4.2668	6.185
4.2458	6.2014
4.2251	6.2107
4.2045	6.2073
4.1841	6.2048
4.164	6.2029
4.144	6.1953
4.1242	6.1907
4.1046	6.1821
4.0852	6.1794
4.066	6.1741
4.047	6.167
4.0281	6.1611
4.0094	6.1531
3.9909	6.145
3.9725	6.133
3.9544	6.1213
3.9363	6.1155
3.9185	6.1089
3.9008	6.0981
3.8833	6.0864
3.8659	6.0742
3.8487	6.06
3.8316	6.0449
3.8147	6.0281
3.7979	6.0122
3.7813	6.0012
3.7648	5.98
3.7485	5.9673
3.7323	5.9441
3.7162	5.9177
3.7003	5.895
3.6845	5.8667
3.6689	5.8401
3.6534	5.8154
3.638	5.793
3.6227	5.7712
3.6076	5.741
3.5926	5.7126
3.5777	5.6819
3.563	5.6501
3.5484	5.6174
3.5338	5.5796
3.5195	5.5303
3.5052	5.4702
3.491	5.4473
3.477	5.435
3.463	5.4028
3.4492	5.3635
3.4355	5.3081
3.4219	5.2373
3.4084	5.206
3.395	5.209
3.3817	5.185
3.3685	5.1724
3.3554	5.1589
3.3425	5.1362
3.3296	5.1125
3.3168	5.0842
3.3041	5.05
3.2915	5.0168
3.279	4.9741
3.2666	4.938
3.2543	4.8957
3.2421	4.8528
3.23	4.8103
3.218	4.7707
3.206	4.7278
3.1942	4.6897
3.1824	4.647
3.1707	4.614
3.1591	4.5918
3.1476	4.562
3.1362	4.5369
3.1249	4.5215
3.1136	4.5034
3.1024	4.49
3.0913	4.4868
3.0803	4.4895
3.0694	4.4851
3.0585	4.477
3.0477	4.4807
3.037	4.4766
3.0264	4.4753
3.0158	4.478
3.0053	4.4797
2.9949	4.4719
2.9845	4.4785
2.9743	4.4744
2.9641	4.4695
2.9539	4.4783
2.9439	4.4768
2.9339	4.4824
2.9239	4.4839
2.9141	4.499
2.9043	4.5044
2.8946	4.5185
2.8849	4.5459
2.8753	4.564
2.8658	4.5935
2.8563	4.6142
2.8469	4.6492
2.8375	4.688
2.8282	4.7285
2.819	4.7678
2.8098	4.8086
2.8007	4.862
2.7917	4.9138
2.7827	4.9768
2.7738	5.0329
2.7649	5.105
2.7561	5.1675
2.7473	5.2368
2.7386	5.314
2.7299	5.3799
2.7213	5.4294
2.7128	5.4963
2.7043	5.5403
2.6959	5.5852
2.6875	5.6042
2.6791	5.6162
2.6709	5.6286
2.6626	5.6443
2.6545	5.6343
2.6463	5.6321
2.6382	5.6296
2.6302	5.6181
2.6222	5.6147
2.6143	5.6025
2.6064	5.5974
2.5986	5.5908
2.5908	5.5737
2.583	5.5627
2.5753	5.5537
2.5677	5.5471
2.5601	5.5315
2.5525	5.5249
2.545	5.5183
2.5375	5.5039
2.5301	5.4897
2.5227	5.4773
2.5154	5.4729
2.5081	5.4519
2.5008	5.435
2.4936	5.4282
2.4864	5.4294
2.4793	5.4189
2.4722	5.4143
2.4651	5.4036
2.4581	5.3957
2.4511	5.3865
2.4442	5.3691
2.4373	5.3667
2.4305	5.3623
2.4236	5.3528
2.4169	5.3425
2.4101	5.3364
2.4034	5.3437
2.3967	5.3323
2.3901	5.3249
2.3835	5.3157
2.377	5.2942
2.3704	5.2925
2.364	5.2917
2.3575	5.2734
2.3511	5.2705
2.3447	5.2854
2.3384	5.2598
2.3321	5.2554
2.3258	5.2624
2.3195	5.2324
2.3133	5.2278
2.3071	5.2363
2.301	5.2275
2.2949	5.2246
2.2888	5.2244
2.2828	5.2251
2.2767	5.2309
2.2708	5.2295
2.2648	5.2339
2.2589	5.2248
2.253	5.2202
2.2471	5.2263
2.2413	5.2302
2.2355	5.2204
2.2297	5.2305
2.224	5.2248
2.2183	5.2192
2.2126	5.2141
2.207	5.2163
2.2013	5.2036
2.1957	5.2097
2.1902	5.2068
2.1846	5.2097
2.1791	5.2046
2.1736	5.196
2.1682	5.1804
2.1628	5.1741
2.1574	5.1833
2.152	5.1777
2.1466	5.1765
2.1413	5.178
2.136	5.189
2.1308	5.1824
2.1255	5.1792
2.1203	5.1924
2.1151	5.1792
2.11	5.1968
2.1048	5.1816
2.0997	5.1824
2.0946	5.1692
2.0895	5.1724
2.0845	5.1785
2.0795	5.1567
