Name: Sodalite Na8Al6Si6O24Cl2
Type: Mineral
Class: Silicates
Subclass: Tectosilicates (Framework silicates); Feldspathoid Group
Particle Size: Fine  (0-74  Micrometers)
Sample No.: sodalite.1
Owner: JHU
Wavelength Range: IR
Origin: Bancroft, Ontario, Canada via Norma Vergo.
Description: The hand sample was a large chunk of vivid blue
Measurement: Bidirectional reflectance
X Units: Wavelength (micrometers)
Y Units: Reflectance (percent)
wavelength	value
25.0442	3.1782
24.3388	1.7705
23.6719	1.7769
23.0407	2.2444
22.4422	1.5039
21.8741	0.9165
21.334	1.9026
20.8199	2.3061
20.33	2.6714
19.8627	0.5718
19.4163	0.8459
18.9896	1.8743
18.5812	2.979
18.19	3.8227
17.815	4.437
17.4551	4.9919
17.1094	5.289
16.7772	5.5222
16.4576	5.3943
16.15	5.0828
15.8537	4.6055
15.568	3.6467
15.2925	2.0608
15.0265	0.9702
14.7697	0.5044
14.5214	1.4731
14.2814	1.3782
14.0492	0.812
13.8244	0.9033
13.6067	1.0439
13.3957	0.3806
13.1912	0.9714
12.9929	2.2192
12.8004	2.9331
12.6135	3.3599
12.432	3.8738
12.2557	4.1765
12.0843	4.3696
11.9176	4.5168
11.7555	4.4993
11.5977	3.9685
11.444	3.7151
11.2944	3.1719
11.1487	2.7524
11.0067	2.4487
10.8682	2.165
10.7332	1.7883
10.6015	1.5085
10.473	1.5195
10.3476	1.938
10.2251	2.6706
10.1056	2.6106
9.98873	2.7251
9.87458	2.7573
9.763	2.7834
9.65392	2.7822
9.54724	3.1619
9.44291	3.9961
9.34082	3.8645
9.24091	3.2412
9.14312	2.5676
9.04739	1.9424
8.95363	1.3533
8.8618	0.8003
8.77183	0.4573
8.68368	0.334
8.59727	0.3303
8.51257	0.417
8.42951	0.5999
8.34807	0.9575
8.26819	1.4556
8.18981	1.8857
8.11292	2.1003
8.03745	2.47
7.96337	3.042
7.89064	3.5256
7.81924	3.7637
7.74911	4.0517
7.68023	4.3257
7.61256	4.4455
7.54608	4.4377
7.48074	2.2109
7.41653	4.8516
7.35341	5.4546
7.29136	5.7644
7.23034	5.7019
7.17033	5.6191
7.11132	5.729
7.05327	5.9966
6.99616	5.8161
6.93996	5.0762
6.88467	5.0464
6.83024	5.9885
6.77667	7.0119
6.72393	7.4048
6.67201	7.4697
6.62089	6.8838
6.57054	6.4512
6.52095	7.3833
6.4721	7.1543
6.42398	6.8445
6.37657	6.7751
6.32986	7.0974
6.28382	7.0893
6.23845	6.8408
6.19373	6.5156
6.14965	6.5122
6.10619	6.2522
6.06334	6.4116
6.02109	6.2502
5.97942	6.4043
5.93832	5.4468
5.89778	4.626
5.8578	3.0015
5.81835	6.6247
5.77943	8.5847
5.74103	9.1548
5.70314	9.2883
5.66574	9.695
5.62883	10.5307
5.5924	11.114
5.55644	10.9336
5.52093	11.1179
5.48588	11.5498
5.45127	12.2028
5.41709	13.2939
5.38334	14.0461
5.35	14.3615
5.31708	14.5088
5.28456	14.5732
5.25243	14.5881
5.2207	14.2226
5.18934	13.1301
5.15836	11.0564
5.12775	9.1111
5.09749	11.7541
5.0676	12.6616
5.03805	13.1245
5.00884	13.2556
4.97998	13.5993
4.95144	13.02
4.92322	11.4424
4.89533	11.5561
4.86775	11.633
4.84048	12.8552
4.81351	13.9477
4.78684	14.6606
4.76047	15.4939
4.73439	15.9045
4.70859	15.8764
4.68306	15.8818
4.65782	16.2133
4.63284	16.6645
4.60814	16.9482
4.58369	17.124
4.5595	17.2346
4.53557	17.2993
4.51188	17.3422
4.48845	17.4074
4.46525	17.4606
4.44229	17.5
4.41957	17.5107
4.39708	17.4704
4.37481	17.5979
4.35277	17.6193
4.33096	17.6123
4.30935	17.5773
4.28797	17.4462
4.26679	17.0898
4.24583	17.5942
4.22506	17.7575
4.2045	17.8408
4.18414	17.8779
4.16398	17.8772
4.14401	17.8806
4.12423	17.8898
4.10464	17.9553
4.08523	18.0344
4.066	18.0876
4.04696	18.1376
4.02809	18.1897
4.0094	18.2263
3.99088	18.2385
3.97253	18.2341
3.95435	18.2309
3.93634	18.2446
3.91848	18.2753
3.90079	18.3388
3.88326	18.3913
3.86589	18.4077
3.84867	18.3923
3.8316	18.3786
3.81468	18.3554
3.79791	18.2976
3.78129	18.1892
3.76482	17.9968
3.74848	18.1535
3.73229	18.2434
3.71624	18.2644
3.70032	18.2353
3.68454	18.2099
3.6689	18.1936
3.65338	18.1796
3.638	18.1425
3.62275	18.1013
3.60762	18.0825
3.59262	18.0371
3.57775	17.9531
3.56299	17.8591
3.54836	17.7773
3.53385	17.7043
3.51945	17.5686
3.50517	17.2182
3.49101	17.2446
3.47696	17.2797
3.46303	17.2426
3.4492	17.0988
3.43549	16.8874
3.42188	16.4873
3.40838	16.4746
3.39499	16.7224
3.38171	16.7085
3.36852	16.6972
3.35544	16.8086
3.34246	16.8029
3.32958	16.7399
3.3168	16.6108
3.30411	16.25
3.29153	16.0139
3.27903	16.3164
3.26664	16.3076
3.25433	16.2387
3.24212	16.1452
3.23	16.0622
3.21797	15.9697
3.20603	15.8759
3.19418	15.7583
3.18241	15.6511
3.17074	15.5417
3.15914	15.4199
3.14763	15.2885
3.13621	15.1767
3.12487	15.0527
3.11361	14.9111
3.10243	14.7744
3.09133	14.6528
3.0803	14.5346
3.06936	14.3945
3.0585	14.2334
3.04771	14.0664
3.037	13.9516
3.02636	13.9521
3.0158	13.9433
3.00531	13.8962
2.99489	13.8735
2.98454	13.8359
2.97427	13.8159
2.96407	13.7793
2.95393	13.7412
2.94387	13.6992
2.93387	13.6772
2.92394	13.6386
2.91408	13.5986
2.90429	13.5507
2.89456	13.5337
2.88489	13.5324
2.87529	13.4775
2.86576	13.4231
2.85628	13.3535
2.84687	13.2265
2.83752	13.0434
2.82823	12.9902
2.81901	13.3237
2.80984	14.0278
2.80073	14.5922
2.79168	15.0048
2.78269	15.2829
2.77376	15.6374
2.76488	15.9743
2.75606	16.3601
2.7473	16.8715
2.73859	17.1738
2.72994	18.1918
2.72134	18.9091
2.7128	19.4382
2.70431	19.7827
2.69587	20.1291
2.68748	20.4135
2.67915	20.5581
2.67087	20.6591
2.66264	20.8762
2.65446	20.9858
2.64633	21.0468
2.63825	21.0783
2.63021	21.02
2.62223	21.1313
2.6143	21.1418
2.60641	21.1289
2.59857	21.2001
2.59078	21.1777
2.58304	21.1113
2.57534	21.2001
2.56768	21.1679
2.56008	21.1337
2.55251	21.1848
2.54499	21.1516
2.53752	21.1855
2.53009	21.1992
2.5227	21.1838
2.51536	21.1332
2.50806	21.1467
2.5008	21.1357
2.49358	21.1
2.4864	21.1252
2.47927	21.131
2.47218	21.1005
2.46512	21.0861
2.45811	21.1008
2.45114	21.1154
2.4442	21.1074
2.43731	21.1057
2.43045	21.1069
2.42363	21.1259
2.41685	21.1264
2.41011	21.1835
2.40341	21.1948
2.39674	21.2402
2.39011	21.2309
2.38352	21.2446
2.37696	21.2631
2.37044	21.2851
2.36395	21.2978
2.35751	21.3383
2.35109	21.3637
2.34471	21.311
2.33836	21.3378
2.33205	21.3183
2.32578	21.3124
2.31953	21.3559
2.31332	21.3364
2.30714	21.3808
2.301	21.3603
2.29489	21.4008
2.28881	21.4033
2.28276	21.4462
2.27675	21.4199
2.27076	21.4394
2.26481	21.4072
2.25889	21.3662
2.253	21.4326
2.24714	21.4789
2.24131	21.4882
2.23551	21.5898
2.22974	21.5507
2.224	21.5825
2.21829	21.5571
2.21261	21.5825
2.20696	21.6455
2.20134	21.6
2.19574	21.6899
2.19018	21.7558
2.18464	21.7661
2.17913	21.7075
2.17365	21.7539
2.16819	21.7978
2.16277	21.7792
2.15737	21.8154
2.15199	21.8144
2.14665	21.9164
2.14133	21.9008
2.13603	21.8461
2.13077	21.8789
2.12552	21.8886
2.12031	21.8574
2.11512	21.955
2.10995	21.9902
2.10481	22.0937
2.0997	22.1684
2.09461	22.166
2.08954	22.1455
2.0845	22.1249
2.07948	22.1347
