Name: Montmorillonite (Na,Ca)0.33(Al,Mg)2Si4O10(OH)2.nH2O
Type: Mineral
Class: Silicates
Subclass: Phyllosilicates (Sheet Silicates); (SmectiteGroup)
Particle Size: 0-2 micrometers.  (Packed powder simulates coarse.)
Sample No.: montmor.3
Owner: JHU
Wavelength Range: IR
Origin: Apache Co., Arizona via Roger Clark, USGS #SAZ-1 (CMS),
Description: The sample is a light brown, earthy clay. Both bulk
Measurement: Bidirectional reflectance
X Units: Wavelength (micrometers)
Y Units: Reflectance (percent)
wavelength	value
25.0442	8.1279
24.3388	8.1826
23.6719	8.5571
23.0407	8.7475
22.4422	9.0766
21.8741	9.4656
21.334	10.6023
20.8199	11.0122
20.33	9.2607
19.8627	8.3142
19.4163	9.2705
18.9896	10.247
18.5812	10.237
18.19	9.9892
17.815	9.7644
17.4551	9.0705
17.1094	8.2749
16.7772	7.6164
16.4576	6.8179
16.15	6.3027
15.8537	6.0845
15.568	4.6135
15.2925	3.9294
15.0265	3.7363
14.7697	3.7605
14.5214	3.7786
14.2814	3.8249
14.0492	3.8999
13.8244	3.9697
13.6067	4.0828
13.3957	4.2068
13.1912	4.3684
12.9929	4.4729
12.8004	4.5237
12.6135	4.56
12.432	4.6601
12.2557	4.7995
12.0843	4.8613
11.9176	4.7681
11.7555	4.6894
11.5977	4.8413
11.444	4.9861
11.2944	5.0901
11.1487	5.157
11.0067	5.1428
10.8682	5.0456
10.7332	5.1018
10.6015	5.2087
10.473	5.3218
10.3476	5.4866
10.2251	5.75
10.1056	6.1033
9.98873	6.4709
9.87458	6.8835
9.763	7.4363
9.65392	8.3
9.54724	9.4878
9.44291	10.7422
9.34082	11.3562
9.24091	10.9516
9.14312	9.9848
9.04739	9.3984
8.95363	9.5742
8.8618	10.2729
8.77183	10.6848
8.68368	10.6269
8.59727	10.105
8.51257	9.0049
8.42951	6.9026
8.34807	3.978
8.26819	1.6165
8.18981	0.8328
8.11292	1.0269
8.03745	1.3091
7.96337	1.7248
7.89064	2.0867
7.81924	2.4221
7.74911	2.7273
7.68023	2.9924
7.61256	3.238
7.54608	3.4363
7.48074	3.616
7.41653	3.7663
7.35341	3.8061
7.29136	3.8166
7.23034	4.0793
7.17033	4.3013
7.11132	4.3852
7.05327	4.3796
6.99616	4.4495
6.93996	4.5886
6.88467	4.7168
6.83024	4.811
6.77667	4.9018
6.72393	4.9709
6.67201	5.019
6.62089	5.0598
6.57054	5.0544
6.52095	5.0295
6.4721	4.9812
6.42398	4.8642
6.37657	4.7163
6.32986	4.4673
6.28382	4.0674
6.23845	3.5527
6.19373	3.1064
6.14965	2.7871
6.10619	2.6038
6.06334	2.5876
6.02109	2.6782
5.97942	2.9131
5.93832	3.2161
5.89778	3.2842
5.8578	3.8721
5.81835	4.5168
5.77943	4.8523
5.74103	5.1074
5.70314	5.3313
5.66574	5.4739
5.62883	5.5312
5.5924	5.5254
5.55644	5.4614
5.52093	5.3567
5.48588	5.2634
5.45127	5.2654
5.41709	5.3259
5.38334	5.4446
5.35	5.563
5.31708	5.6723
5.28456	5.7297
5.25243	5.7624
5.2207	5.7678
5.18934	5.7785
5.15836	5.8171
5.12775	5.8884
5.09749	5.9812
5.0676	6.093
5.03805	6.2082
5.00884	6.3039
4.97998	6.3823
4.95144	6.4555
4.92322	6.5141
4.89533	6.5471
4.86775	6.5813
4.84048	6.6033
4.81351	6.6196
4.78684	6.6435
4.76047	6.6523
4.73439	6.6645
4.70859	6.6711
4.68306	6.6904
4.65782	6.6911
4.63284	6.7036
4.60814	6.7173
4.58369	6.7278
4.5595	6.7375
4.53557	6.749
4.51188	6.7622
4.48845	6.7866
4.46525	6.8118
4.44229	6.8442
4.41957	6.8828
4.39708	6.9233
4.37481	6.968
4.35277	7.0156
4.33096	7.0649
4.30935	7.1177
4.28797	7.1841
4.26679	7.2573
4.24583	7.3269
4.22506	7.3967
4.2045	7.4726
4.18414	7.5405
4.16398	7.6142
4.14401	7.6894
4.12423	7.75
4.10464	7.8093
4.08523	7.8764
4.066	7.9387
4.04696	7.9988
4.02809	8.0498
4.0094	8.0886
3.99088	8.1211
3.97253	8.1474
3.95435	8.1601
3.93634	8.1631
3.91848	8.1684
3.90079	8.1631
3.88326	8.1284
3.86589	8.0913
3.84867	8.0508
3.8316	8.0039
3.81468	7.9543
3.79791	7.9106
3.78129	7.8569
3.76482	7.7812
3.74848	7.7038
3.73229	7.6347
3.71624	7.5254
3.70032	7.4411
3.68454	7.3508
3.6689	7.272
3.65338	7.1816
3.638	7.0757
3.62275	6.9641
3.60762	6.8576
3.59262	6.7339
3.57775	6.6135
3.56299	6.4924
3.54836	6.3635
3.53385	6.229
3.51945	6.0972
3.50517	5.9253
3.49101	5.8052
3.47696	5.6694
3.46303	5.5334
3.4492	5.3848
3.43549	5.2204
3.42188	5.0466
3.40838	4.9099
3.39499	4.7817
3.38171	4.6318
3.36852	4.5078
3.35544	4.366
3.34246	4.2212
3.32958	4.0747
3.3168	3.9297
3.30411	3.8098
3.29153	3.6936
3.27903	3.5688
3.26664	3.4426
3.25433	3.3159
3.24212	3.2063
3.23	3.0974
3.21797	2.9941
3.20603	2.8899
3.19418	2.7854
3.18241	2.6982
3.17074	2.6003
3.15914	2.5359
3.14763	2.4468
3.13621	2.3811
3.12487	2.3125
3.11361	2.2544
3.10243	2.2085
3.09133	2.1704
3.0803	2.1526
3.06936	2.1289
3.0585	2.1164
3.04771	2.1204
3.037	2.1121
3.02636	2.0769
3.0158	2.0593
3.00531	2.0308
2.99489	2.0044
2.98454	1.9885
2.97427	1.9355
2.96407	1.9316
2.95393	1.908
2.94387	1.8757
2.93387	1.8679
2.92394	1.8633
2.91408	1.8462
2.90429	1.8354
2.89456	1.8467
2.88489	1.8384
2.87529	1.8201
2.86576	1.8083
2.85628	1.7956
2.84687	1.8083
2.83752	1.8174
2.82823	1.8057
2.81901	1.7913
2.80984	1.7756
2.80073	1.7554
2.79168	1.7139
2.78269	1.667
2.77376	1.6094
2.76488	1.5537
2.75606	1.5183
2.7473	1.5212
2.73859	1.5449
2.72994	1.6196
2.72134	1.7983
2.7128	2.1736
2.70431	2.6807
2.69587	3.2642
2.68748	3.8157
2.67915	4.2097
2.67087	4.491
2.66264	4.7466
2.65446	4.9182
2.64633	5.0542
2.63825	5.1814
2.63021	5.2495
2.62223	5.3357
2.6143	5.3823
2.60641	5.4348
2.59857	5.4919
2.59078	5.5105
2.58304	5.5305
2.57534	5.5159
2.56768	5.529
2.56008	5.5427
2.55251	5.5757
2.54499	5.5981
2.53752	5.623
2.53009	5.6323
2.5227	5.7163
2.51536	5.7536
2.50806	5.7783
2.5008	5.8437
2.49358	5.8799
2.4864	5.947
2.47927	5.9797
2.47218	5.9746
2.46512	5.9985
2.45811	6.0246
2.45114	6.0459
2.4442	6.0791
2.43731	6.1445
2.43045	6.1831
2.42363	6.2341
2.41685	6.2776
2.41011	6.3547
2.40341	6.3838
2.39674	6.4492
2.39011	6.5051
2.38352	6.5967
2.37696	6.6587
2.37044	6.6943
2.36395	6.7842
2.35751	6.8735
2.35109	6.9651
2.34471	7.0122
2.33836	7.0766
2.33205	7.145
2.32578	7.2092
2.31953	7.23
2.31332	7.3315
2.30714	7.3838
2.301	7.4145
2.29489	7.5249
2.28881	7.5703
2.28276	7.6362
2.27675	7.6665
2.27076	7.7016
2.26481	7.6645
2.25889	7.5747
2.253	7.5278
2.24714	7.4748
2.24131	7.3396
2.23551	7.237
2.22974	7.073
2.224	6.9133
2.21829	6.7571
2.21261	6.6885
2.20696	6.8752
2.20134	7.1692
2.19574	7.5014
2.19018	7.6748
2.18464	7.821
2.17913	7.9419
2.17365	8.0105
2.16819	8.0256
2.16277	8.0552
2.15737	8.0901
2.15199	8.0801
2.14665	8.0705
2.14133	8.1084
2.13603	8.1279
2.13077	8.1379
2.12552	8.0981
2.12031	8.1098
2.11512	8.1362
2.10995	8.0781
2.10481	8.0903
2.0997	8.1015
2.09461	8.1018
2.08954	8.1396
2.0845	8.1396
2.07948	8.1235
