Name: Leucite KAlSi2O6
Type: Mineral
Class: Silicates
Subclass: Tectosilicates (Framework Silicates); (Feldspathoid Group)
Particle Size: Fine  (Less than 2 micrometers)
Sample No.: leucite.1
Owner: JHU
Wavelength Range: IR
Origin: Lake Latium, Italy via the Smithsonian (sample no. NMNH
Description: The sample was a single small crystal, 1 cm in diameter
Measurement: Transmission
X Units: Wavelength (micrometers)
Y Units: Transmittance (percent)
wavelength	value
25.0442	61.1131
24.3388	54.3436
23.6719	46.3632
23.0407	39.9061
22.4422	43.0712
21.8741	52.7655
21.334	57.5204
20.8199	63.5506
20.33	71.1717
19.8627	81.6307
19.4163	83.5008
18.9896	84.5471
18.5812	81.4871
18.19	88.4417
17.815	92.3616
17.4551	91.678
17.1094	89.3674
16.7772	85.2801
16.4576	80.1141
16.15	81.1746
15.8537	75.0408
15.568	73.9647
15.2925	83.5125
15.0265	81.2976
14.7697	76.1658
14.5214	68.6014
14.2814	61.575
14.0492	56.5482
13.8244	55.2713
13.6067	56.9974
13.3957	57.9535
13.1912	60.3497
12.9929	61.8263
12.8004	67.9476
12.6135	78.2608
12.432	86.5525
12.2557	87.9004
12.0843	87.7107
11.9176	89.4363
11.7555	85.7129
11.5977	81.2166
11.444	76.4129
11.2944	72.9864
11.1487	67.6925
11.0067	62.4452
10.8682	56.2479
10.7332	49.4198
10.6015	38.6808
10.473	30.2485
10.3476	26.5014
10.2251	25.0656
10.1056	23.0898
9.98873	21.8574
9.87458	21.5346
9.763	21.0266
9.65392	21.4641
9.54724	22.5883
9.44291	24.5234
9.34082	27.7765
9.24091	32.4589
9.14312	35.7423
9.04739	37.8769
8.95363	39.9279
8.8618	42.9017
8.77183	46.2821
8.68368	50.4464
8.59727	54.7081
8.51257	59.1131
8.42951	62.9178
8.34807	66.1158
8.26819	68.7845
8.18981	70.8924
8.11292	72.7471
8.03745	74.2537
7.96337	75.5057
7.89064	76.761
7.81924	77.8401
7.74911	78.6487
7.68023	79.4241
7.61256	80.2923
7.54608	80.9285
7.48074	81.5999
7.41653	82.1155
7.35341	82.6861
7.29136	83.2027
7.23034	83.5008
7.17033	83.7771
7.11132	84.1609
7.05327	84.5847
6.99616	84.8411
6.93996	84.2459
6.88467	84.7268
6.83024	85.5554
6.77667	85.8274
6.72393	86.0574
6.67201	86.4114
6.62089	86.8108
6.57054	86.971
6.52095	86.9583
6.4721	87.0425
6.42398	87.0217
6.37657	86.9285
6.32986	86.8435
6.28382	86.5398
6.23845	85.616
6.19373	84.3108
6.14965	83.8875
6.10619	84.8233
6.06334	85.5667
6.02109	85.0203
5.97942	85.2678
5.93832	87.5745
5.89778	88.7356
5.8578	89.0974
5.81835	89.1799
5.77943	89.3147
5.74103	89.364
5.70314	89.5051
5.66574	89.5974
5.62883	89.676
5.5924	89.8391
5.55644	90.0256
5.52093	90.1716
5.48588	90.2849
5.45127	90.5059
5.41709	90.6961
5.38334	90.7566
5.35	90.9314
5.31708	91.0989
5.28456	91.198
5.25243	91.4002
5.2207	91.4895
5.18934	91.6394
5.15836	91.7009
5.12775	91.8377
5.09749	91.8684
5.0676	91.9734
5.03805	92.0025
5.00884	92.1045
4.97998	92.1887
4.95144	92.2681
4.92322	92.332
4.89533	92.4121
4.86775	92.4385
4.84048	92.4981
4.81351	92.5586
4.78684	92.6338
4.76047	92.7378
4.73439	92.7791
4.70859	92.792
4.68306	92.8975
4.65782	92.9373
4.63284	93.0569
4.60814	93.1304
4.58369	93.217
4.5595	93.2129
4.53557	93.3037
4.51188	93.2734
4.48845	93.3611
4.46525	93.4463
4.44229	93.4868
4.41957	93.5388
4.39708	93.6189
4.37481	93.6428
4.35277	93.7556
4.33096	93.8137
4.30935	93.7683
4.28797	93.8801
4.26679	93.8928
4.24583	93.9102
4.22506	93.9502
4.2045	93.9446
4.18414	94.0584
4.16398	94.0652
4.14401	94.124
4.12423	94.1387
4.10464	94.2141
4.08523	94.2119
4.066	94.2097
4.04696	94.3513
4.02809	94.3506
4.0094	94.3604
3.99088	94.3772
3.97253	94.3796
3.95435	94.4219
3.93634	94.4583
3.91848	94.582
3.90079	94.5754
3.88326	94.4941
3.86589	94.5173
3.84867	94.5002
3.8316	94.6165
3.81468	94.6082
3.79791	94.6123
3.78129	94.7148
3.76482	94.678
3.74848	94.6487
3.73229	94.6953
3.71624	94.7217
3.70032	94.655
3.68454	94.7224
3.6689	94.7197
3.65338	94.7617
3.638	94.8408
3.62275	94.7205
3.60762	94.6965
3.59262	94.6973
3.57775	94.7966
3.56299	94.7209
3.54836	94.7646
3.53385	94.7959
3.51945	94.8962
3.50517	94.7585
3.49101	94.9258
3.47696	94.9932
3.46303	95.0779
3.4492	95.0928
3.43549	95.0029
3.42188	94.7119
3.40838	94.6892
3.39499	94.8379
3.38171	94.6025
3.36852	94.6523
3.35544	94.4636
3.34246	94.3357
3.32958	94.4424
3.3168	94.3494
3.30411	94.3357
3.29153	94.3015
3.27903	94.3367
3.26664	94.2937
3.25433	94.2664
3.24212	94.2595
3.23	94.0645
3.21797	94.0217
3.20603	93.988
3.19418	93.9231
3.18241	93.8591
3.17074	93.7703
3.15914	93.6326
3.14763	93.3787
3.13621	93.22
3.12487	92.8889
3.11361	92.7229
3.10243	92.7239
3.09133	92.717
3.0803	92.5857
3.06936	92.4983
3.0585	92.4343
3.04771	92.6702
3.037	92.4939
3.02636	92.2146
3.0158	91.7029
3.00531	91.2727
2.99489	90.7981
2.98454	90.363
2.97427	89.6448
2.96407	88.7366
2.95393	87.8884
2.94387	87.3611
2.93387	86.6277
2.92394	86.1795
2.91408	85.9314
2.90429	86.1443
2.89456	86.5213
2.88489	87.0535
2.87529	87.367
2.86576	87.8709
2.85628	88.4422
2.84687	88.8206
2.83752	89.1257
2.82823	89.4304
2.81901	89.8513
2.80984	90.0139
2.80073	90.3655
2.79168	90.7615
2.78269	91.2888
2.77376	91.6018
2.76488	92.0647
2.75606	92.5901
2.7473	93.1091
2.73859	93.2498
2.72994	93.5584
2.72134	93.8337
2.7128	93.6897
2.70431	93.8084
2.69587	93.9534
2.68748	94.0867
2.67915	94.0647
2.67087	94.1794
2.66264	93.9968
2.65446	94.0647
2.64633	93.865
2.63825	93.9998
2.63021	94.0017
2.62223	94.0212
2.6143	93.8303
2.60641	93.9607
2.59857	93.7756
2.59078	94.0759
2.58304	94.1316
2.57534	93.6834
2.56768	93.7205
2.56008	93.8777
2.55251	93.7527
2.54499	93.7752
2.53752	93.7322
2.53009	93.7566
2.5227	93.8005
2.51536	93.7478
2.50806	93.6873
2.5008	93.6492
2.49358	93.6736
2.4864	93.615
2.47927	93.8171
2.47218	93.4832
2.46512	93.4802
2.45811	93.6404
2.45114	93.7029
2.4442	93.4539
2.43731	93.4334
2.43045	93.5369
2.42363	93.6892
2.41685	93.5554
2.41011	93.6091
2.40341	93.4646
2.39674	93.5789
2.39011	93.3357
2.38352	93.3337
2.37696	93.5232
2.37044	93.3513
2.36395	93.2586
2.35751	93.4187
2.35109	93.3591
2.34471	93.3767
2.33836	93.0701
2.33205	93.114
2.32578	93.1111
2.31953	93.2927
2.31332	93.2507
2.30714	93.2693
2.301	93.2068
2.29489	93.1482
2.28881	93.157
2.28276	93.0603
2.27675	93.1375
2.27076	93.4109
2.26481	93.2459
2.25889	92.9578
2.253	93.2693
2.24714	93.1414
2.24131	92.9773
2.23551	93.0046
2.22974	93.1951
2.224	93.1462
2.21829	93.239
2.21261	92.8757
2.20696	92.8474
2.20134	93.0203
2.19574	93.1755
2.19018	92.9841
2.18464	92.6912
2.17913	92.8396
2.17365	93.0544
2.16819	92.8884
2.16277	93.0603
2.15737	92.9392
2.15199	92.5662
2.14665	92.8943
2.14133	92.8923
2.13603	92.6248
2.13077	92.9666
2.12552	92.9177
2.12031	92.9216
2.11512	92.7009
2.10995	92.9216
2.10481	92.8025
2.0997	92.7224
2.09461	92.8845
2.08954	92.8904
2.0845	93.2185
2.07948	92.8279
