Name: Olivine (Fo92) (Fe+2,Mg)2SiO4
Type: Mineral
Class: Silicates
Subclass: Nesosilicates (Isolated tetrahedra); (Olivine Group)
Particle Size: Fine  (Less than 2  Micrometers)
Sample No.: olivine.11
Owner: JHU
Wavelength Range: IR
Origin: Chavira olivine-peridot mine, near Camargo, Chihuahua,
Description: Sample consisted of many 0.5 cm particles, green in
Measurement: Bidirectional reflectance
X Units: Wavelength (micrometers)
Y Units: Reflectance (percent)
wavelength	value
25.0442	1.8928
24.3388	2.2822
23.6719	2.6753
23.0407	2.147
22.4422	1.8437
21.8741	1.3184
21.334	1.1733
20.8199	0.999
20.33	1.1965
19.8627	1.5706
19.4163	1.7209
18.9896	2.0447
18.5812	1.8091
18.19	1.7707
17.815	1.7007
17.4551	1.5217
17.1094	1.23
16.7772	0.9692
16.4576	1.054
16.15	1.2375
15.8537	1.4507
15.568	1.5779
15.2925	1.408
15.0265	1.3552
14.7697	1.4985
14.5214	1.6797
14.2814	1.9675
14.0492	2.2146
13.8244	2.456
13.6067	2.6545
13.3957	2.7226
13.1912	2.8005
12.9929	2.8559
12.8004	2.7952
12.6135	2.5847
12.432	2.2351
12.2557	1.8906
12.0843	1.4849
11.9176	1.1958
11.7555	1.2778
11.5977	1.4756
11.444	1.9851
11.2944	2.2539
11.1487	2.3384
11.0067	2.4687
10.8682	2.5742
10.7332	2.73
10.6015	2.9128
10.473	2.8445
10.3476	2.3166
10.2251	1.8638
10.1056	2.3464
9.98873	2.3135
9.87458	2.3892
9.763	2.5034
9.65392	2.6865
9.54724	2.9844
9.44291	3.2947
9.34082	3.7012
9.24091	3.4294
9.14312	2.8723
9.04739	2.4214
8.95363	2.1916
8.8618	2.1599
8.77183	2.3406
8.68368	2.6116
8.59727	2.9016
8.51257	3.1511
8.42951	3.3442
8.34807	3.6702
8.26819	3.9128
8.18981	4.1057
8.11292	4.478
8.03745	4.7981
7.96337	5.0771
7.89064	5.2082
7.81924	5.258
7.74911	5.352
7.68023	5.469
7.61256	5.4609
7.54608	5.4153
7.48074	5.604
7.41653	5.8823
7.35341	6.1377
7.29136	6.4255
7.23034	6.4826
7.17033	6.5635
7.11132	6.7717
7.05327	6.7822
6.99616	7.0395
6.93996	7.4172
6.88467	7.6738
6.83024	7.6943
6.77667	7.7471
6.72393	8.0486
6.67201	8.3298
6.62089	8.5261
6.57054	8.604
6.52095	8.6028
6.4721	8.6448
6.42398	8.6699
6.37657	8.686
6.32986	8.7256
6.28382	8.5952
6.23845	8.6167
6.19373	8.6948
6.14965	8.6733
6.10619	8.4555
6.06334	7.7505
6.02109	6.3469
5.97942	6
5.93832	6.3164
5.89778	6.4067
5.8578	6.4502
5.81835	6.6106
5.77943	6.7766
5.74103	6.7649
5.70314	6.2612
5.66574	5.5818
5.62883	5.1142
5.5924	5.3826
5.55644	6.2839
5.52093	6.5847
5.48588	6.5813
5.45127	6.5195
5.41709	6.6921
5.38334	7.0332
5.35	7.3313
5.31708	7.5454
5.28456	7.626
5.25243	7.5896
5.2207	7.5227
5.18934	7.7265
5.15836	8.0427
5.12775	8.3279
5.09749	8.5498
5.0676	8.7226
5.03805	8.7717
5.00884	8.6907
4.97998	8.4873
4.95144	8.1987
4.92322	8.3603
4.89533	8.9968
4.86775	9.8862
4.84048	10.5188
4.81351	10.7898
4.78684	10.9673
4.76047	11.0849
4.73439	11.1653
4.70859	11.2463
4.68306	11.3217
4.65782	11.3762
4.63284	11.445
4.60814	11.5
4.58369	11.5681
4.5595	11.6335
4.53557	11.7007
4.51188	11.7439
4.48845	11.792
4.46525	11.8498
4.44229	11.9001
4.41957	11.9587
4.39708	12.0085
4.37481	12.0508
4.35277	12.0952
4.33096	12.1318
4.30935	12.1621
4.28797	12.1992
4.26679	12.2439
4.24583	12.3015
4.22506	12.3691
4.2045	12.4177
4.18414	12.4541
4.16398	12.4966
4.14401	12.5354
4.12423	12.572
4.10464	12.6179
4.08523	12.6482
4.066	12.6889
4.04696	12.6997
4.02809	12.6892
4.0094	12.6757
3.99088	12.7219
3.97253	12.7739
3.95435	12.8274
3.93634	12.8579
3.91848	12.8862
3.90079	12.9016
3.88326	12.9138
3.86589	12.9179
3.84867	12.9126
3.8316	12.9116
3.81468	12.9299
3.79791	12.9502
3.78129	12.9797
3.76482	13.008
3.74848	13.0344
3.73229	13.0566
3.71624	13.0771
3.70032	13.0952
3.68454	13.1157
3.6689	13.1357
3.65338	13.1557
3.638	13.1696
3.62275	13.1943
3.60762	13.2087
3.59262	13.2219
3.57775	13.2324
3.56299	13.2329
3.54836	13.2234
3.53385	13.2248
3.51945	13.1706
3.50517	13.0378
3.49101	13.0561
3.47696	13.1006
3.46303	13.1191
3.4492	13.0783
3.43549	12.9958
3.42188	12.83
3.40838	12.8217
3.39499	12.9658
3.38171	12.9895
3.36852	13.0007
3.35544	13.0915
3.34246	13.1374
3.32958	13.1594
3.3168	13.1609
3.30411	13.1682
3.29153	13.1618
3.27903	13.1665
3.26664	13.1609
3.25433	13.1489
3.24212	13.1399
3.23	13.1223
3.21797	13.1062
3.20603	13.0976
3.19418	13.0749
3.18241	13.063
3.17074	13.0468
3.15914	13.0405
3.14763	13.0136
3.13621	12.9914
3.12487	12.9756
3.11361	12.9543
3.10243	12.9382
3.09133	12.927
3.0803	12.9128
3.06936	12.8972
3.0585	12.8869
3.04771	12.8752
3.037	12.8613
3.02636	12.8332
3.0158	12.8093
3.00531	12.7859
2.99489	12.791
2.98454	12.7778
2.97427	12.7461
2.96407	12.7553
2.95393	12.7544
2.94387	12.7795
2.93387	12.7563
2.92394	12.7678
2.91408	12.7868
2.90429	12.7944
2.89456	12.821
2.88489	12.8325
2.87529	12.8274
2.86576	12.8374
2.85628	12.8867
2.84687	12.8982
2.83752	12.8798
2.82823	12.9892
2.81901	13.0456
2.80984	13.03
2.80073	12.9592
2.79168	13.1967
2.78269	13.3025
2.77376	13.3857
2.76488	13.4826
2.75606	13.5857
2.7473	13.7517
2.73859	13.9033
2.72994	14.0571
2.72134	14.1657
2.7128	14.3232
2.70431	14.4482
2.69587	14.6777
2.68748	14.896
2.67915	15.0117
2.67087	15.0817
2.66264	15.1587
2.65446	15.1623
2.64633	15.1975
2.63825	15.2246
2.63021	15.2295
2.62223	15.2607
2.6143	15.2661
2.60641	15.278
2.59857	15.3086
2.59078	15.3452
2.58304	15.3505
2.57534	15.3442
2.56768	15.3442
2.56008	15.3379
2.55251	15.3767
2.54499	15.4184
2.53752	15.4096
2.53009	15.4123
2.5227	15.427
2.51536	15.4521
2.50806	15.469
2.5008	15.4929
2.49358	15.4829
2.4864	15.5183
2.47927	15.5488
2.47218	15.5532
2.46512	15.5595
2.45811	15.5774
2.45114	15.5996
2.4442	15.6269
2.43731	15.6189
2.43045	15.6247
2.42363	15.6606
2.41685	15.6877
2.41011	15.7072
2.40341	15.7114
2.39674	15.706
2.39011	15.7395
2.38352	15.7307
2.37696	15.7343
2.37044	15.7636
2.36395	15.7902
2.35751	15.7895
2.35109	15.8386
2.34471	15.872
2.33836	15.83
2.33205	15.8525
2.32578	15.892
2.31953	15.9106
2.31332	15.9377
2.30714	15.9296
2.301	15.9663
2.29489	15.988
2.28881	15.9941
2.28276	15.9936
2.27675	16.0131
2.27076	16.0302
2.26481	16.0537
2.25889	16.0837
2.253	16.072
2.24714	16.1047
2.24131	16.0793
2.23551	16.0993
2.22974	16.1311
2.224	16.1088
2.21829	16.144
2.21261	16.1547
2.20696	16.1203
2.20134	16.1652
2.19574	16.1638
2.19018	16.1801
2.18464	16.1997
2.17913	16.1709
2.17365	16.2246
2.16819	16.1938
2.16277	16.2324
2.15737	16.1962
2.15199	16.2124
2.14665	16.1948
2.14133	16.1982
2.13603	16.2382
2.13077	16.2749
2.12552	16.2475
2.12031	16.2617
2.11512	16.2954
2.10995	16.2724
2.10481	16.2832
2.0997	16.3042
2.09461	16.3005
2.08954	16.3012
2.0845	16.3195
2.07948	16.2995
