Name: 12030.135
Type: Soil
Class: Lunar
Subclass: Maria
Particle Size: Fine
Sample No.: 12030.135
Owner: JHU
Origin: Apollo 12 landing site via the NASA Lunar Sample Repository at Johnson
Description: This sample is one of a suite of soils of similar chemistry, but
Measurement: Directional (10 degree) hemispherical reflectance
X Units: Wavelength (micrometers)
Y Units: Reflectance (percent)
wavelength	value
14.011	1.2485
13.788	1.2535
13.571	1.3498
13.361	1.4602
13.158	1.5601
12.96	1.7082
12.769	1.8662
12.583	2.1395
12.402	2.4403
12.227	2.641
12.056	2.588
11.89	2.4602
11.729	2.4987
11.572	2.5428
11.419	2.6442
11.27	2.52
11.125	2.3983
10.983	2.3098
10.846	2.3826
10.711	2.3419
10.58	2.2302
10.452	2.1428
10.327	2.0474
10.205	1.9354
10.086	1.9443
9.97	1.9062
9.856	1.9297
9.745	1.9698
9.636	1.9115
9.53	1.9482
9.426	1.9406
9.324	1.9707
9.225	1.9985
9.127	2.0328
9.032	1.9096
8.938	1.6453
8.847	1.3977
8.757	1.2622
8.669	1.217
8.583	1.1447
8.499	1.1536
8.416	1.1173
8.335	1.1796
8.255	1.2989
8.177	1.4944
8.1	1.7657
8.025	2.1463
7.951	2.6916
7.879	3.2949
7.808	3.8498
7.737	4.3967
7.669	5.0005
7.601	5.5222
7.535	6.0408
7.47	6.5774
7.406	7.0878
7.343	7.5837
7.281	8.0312
7.22	8.4459
7.16	8.8563
7.102	9.1739
7.044	9.5749
6.987	9.8808
6.931	10.148
6.875	10.484
6.821	10.664
6.768	10.821
6.715	10.905
6.663	10.925
6.612	10.959
6.562	11.054
6.513	11.171
6.464	11.306
6.416	11.476
6.369	11.424
6.322	11.371
6.276	11.39
6.231	11.403
6.186	11.543
6.142	11.677
6.099	11.858
6.056	12.068
6.014	12.229
5.973	12.539
5.931	12.992
5.891	13.428
5.851	13.759
5.812	14.062
5.773	14.386
5.735	14.59
5.697	14.689
5.66	14.799
5.623	15.014
5.586	15.279
5.551	15.531
5.515	15.605
5.48	15.633
5.446	15.558
5.411	15.528
5.378	15.43
5.345	15.296
5.312	15.292
5.279	15.421
5.247	15.68
5.215	15.994
5.184	16.282
5.153	16.567
5.123	16.88
5.093	17.154
5.063	17.43
5.033	17.727
5.004	18.101
4.975	18.472
4.947	18.881
4.919	19.343
4.891	19.744
4.863	20.146
4.836	20.513
4.809	20.887
4.782	21.212
4.756	21.534
4.73	21.885
4.704	22.25
4.679	22.58
4.654	22.881
4.629	23.191
4.604	23.459
4.58	23.693
4.556	23.86
4.532	24.055
4.508	24.178
4.485	24.274
4.461	24.345
4.439	24.439
4.416	24.494
4.393	24.557
4.371	24.624
4.349	24.721
4.327	24.799
4.306	24.863
4.284	24.897
4.263	24.986
4.242	25.013
4.222	25.058
4.201	25.103
4.181	25.162
4.161	25.169
4.141	25.228
4.121	25.23
4.101	25.254
4.082	25.27
4.063	25.287
4.044	25.328
4.025	25.334
4.006	25.369
3.988	25.385
3.97	25.395
3.951	25.408
3.933	25.426
3.916	25.374
3.898	25.384
3.88	25.371
3.863	25.392
3.846	25.345
3.829	25.341
3.812	25.358
3.795	25.315
3.779	25.329
3.762	25.321
3.746	25.293
3.73	25.278
3.714	25.279
3.698	25.254
3.682	25.215
3.666	25.212
3.651	25.164
3.636	25.159
3.62	25.154
3.605	25.096
3.59	25.098
3.575	25.089
3.561	25.067
3.546	25.032
3.531	25.012
3.517	24.99
3.503	25.008
3.489	24.98
3.475	24.916
3.461	24.897
3.447	24.91
3.433	24.917
3.42	24.885
3.406	24.836
3.393	24.821
3.38	24.735
3.366	24.673
3.353	24.605
3.34	24.596
3.327	24.537
3.315	24.495
3.302	24.464
3.289	24.471
3.277	24.417
3.265	24.326
3.252	24.324
3.24	24.283
3.228	24.213
3.216	24.2
3.204	24.157
3.192	24.073
3.18	24.061
3.169	24.026
3.157	23.99
3.146	23.926
3.134	23.926
3.123	23.838
3.112	23.815
3.101	23.809
3.09	23.754
3.079	23.737
3.067	23.695
3.057	23.641
3.046	23.623
3.035	23.625
3.025	23.607
3.014	23.506
3.004	23.453
2.993	23.389
2.983	23.369
2.973	23.411
2.962	23.327
2.952	23.275
2.942	23.244
2.932	23.224
2.922	23.179
2.912	23.176
2.903	23.152
2.893	23.117
2.883	23.144
2.874	23.058
2.864	23.094
2.855	23.083
2.845	23.048
2.836	23.012
2.827	23.049
2.817	23.094
2.808	23.069
2.799	23.162
2.79	23.175
2.781	23.268
2.772	23.342
2.763	23.527
2.755	23.623
2.746	23.65
2.737	23.758
2.728	23.794
2.72	23.93
2.711	23.907
2.703	23.853
2.695	23.864
2.686	23.799
2.678	23.798
2.67	23.868
2.661	23.73
2.653	23.7
2.645	23.631
2.637	23.543
2.629	23.543
2.621	23.529
2.613	23.371
2.605	23.387
2.597	23.32
2.59	23.225
2.582	23.153
2.574	23.043
2.566	23.005
2.559	22.903
2.551	22.835
2.544	22.763
2.536	22.676
2.529	22.622
2.522	22.516
2.514	22.48
2.507	22.41
2.5	22.341
2.492	22.244
2.485	22.127
2.478	22.076
2.471	22.026
2.464	21.952
2.457	21.913
2.45	21.81
2.443	21.736
2.436	21.644
2.429	21.589
2.422	21.544
2.416	21.503
2.409	21.419
2.402	21.383
2.396	21.319
2.389	21.231
2.382	21.187
2.376	21.082
2.369	21.054
2.363	20.953
2.356	20.945
2.35	20.899
2.344	20.812
2.337	20.767
2.331	20.725
2.325	20.631
2.318	20.617
2.312	20.554
2.306	20.499
2.3	20.452
2.294	20.438
2.288	20.344
2.282	20.321
2.276	20.238
2.27	20.255
2.264	20.22
2.258	20.151
2.252	20.072
2.246	20.04
2.24	20.006
2.235	19.987
2.229	19.882
2.223	19.883
2.217	19.833
2.212	19.823
2.206	19.734
2.2	19.696
2.195	19.653
2.189	19.644
2.184	19.592
2.178	19.625
2.173	19.577
2.167	19.502
2.162	19.514
2.156	19.456
2.151	19.381
2.146	19.424
2.14	19.337
2.135	19.317
2.13	19.328
2.125	19.286
2.119	19.281
2.114	19.215
2.109	19.191
2.104	19.171
2.099	19.166
2.094	19.159
2.089	19.06
2.084	19.07
