Name: Leucite KAlSi2O6
Type: Mineral
Class: Silicates
Subclass: Tectosilicates (Framework Silicates); (Feldspathoid Group)
Particle Size: Solid (unknown crystal face)
Sample No.: leucite.1
Owner: JHU
Wavelength Range: IR
Origin: Lake Latium, Italy via the Smithsonian (sample no. NMNH
Description: The sample was a single small crystal, 1 cm in diameter
Measurement: Bidirectional reflectance
X Units: Wavelength (micrometers)
Y Units: Reflectance (percent)
wavelength	value
25.0442	18.6953
24.3388	19.4296
23.6719	20.9145
23.0407	22.8632
22.4422	22.2863
21.8741	17.5849
21.334	15.5676
20.8199	12.3823
20.33	8.8889
19.8627	6.9912
19.4163	8.561
18.9896	8.164
18.5812	9.4155
18.19	8.8325
17.815	9.5859
17.4551	10.1748
17.1094	10.6194
16.7772	10.9682
16.4576	11.0913
16.15	11.2348
15.8537	11.73
15.568	10.9983
15.2925	10.7771
15.0265	11.3337
14.7697	11.7959
14.5214	12.384
14.2814	12.552
14.0492	12.6562
13.8244	12.2387
13.6067	11.4729
13.3957	10.8547
13.1912	10.3305
12.9929	9.6946
12.8004	8.6225
12.6135	8.1726
12.432	8.7495
12.2557	9.4033
12.0843	9.6306
11.9176	10.176
11.7555	10.664
11.5977	11.154
11.444	11.6491
11.2944	12.0891
11.1487	12.633
11.0067	13.1562
10.8682	13.7732
10.7332	14.6965
10.6015	16.2556
10.473	17.3474
10.3476	17.5781
10.2251	17.6005
10.1056	18.288
9.98873	18.9428
9.87458	19.9094
9.763	21.2734
9.65392	22.7204
9.54724	24.0173
9.44291	25.081
9.34082	25.2685
9.24091	23.3954
9.14312	21.6181
9.04739	21.3178
8.95363	21.5903
8.8618	21.696
8.77183	21.3117
8.68368	20.7202
8.59727	20.0231
8.51257	18.9101
8.42951	16.122
8.34807	11.8098
8.26819	6.7756
8.18981	2.1091
8.11292	0.5513
8.03745	1.2603
7.96337	1.9553
7.89064	2.4993
7.81924	2.9429
7.74911	3.3157
7.68023	3.6511
7.61256	3.9355
7.54608	4.1494
7.48074	4.3398
7.41653	4.5447
7.35341	4.6853
7.29136	4.7837
7.23034	4.8813
7.17033	4.9827
7.11132	5.0947
7.05327	5.187
6.99616	5.2131
6.93996	5.2646
6.88467	5.292
6.83024	5.3342
6.77667	5.3257
6.72393	5.3579
6.67201	5.4048
6.62089	5.4658
6.57054	5.5132
6.52095	5.6015
6.4721	5.698
6.42398	5.863
6.37657	5.9236
6.32986	5.9387
6.28382	5.9856
6.23845	5.9512
6.19373	5.8855
6.14965	5.8503
6.10619	5.7678
6.06334	5.7263
6.02109	5.6631
5.97942	5.6077
5.93832	5.5222
5.89778	5.4919
5.8578	5.4973
5.81835	5.4783
5.77943	5.5398
5.74103	5.5972
5.70314	5.5827
5.66574	5.5945
5.62883	5.5954
5.5924	5.6128
5.55644	5.6142
5.52093	5.6284
5.48588	5.6416
5.45127	5.6601
5.41709	5.6604
5.38334	5.6623
5.35	5.6587
5.31708	5.6816
5.28456	5.6767
5.25243	5.6836
5.2207	5.6782
5.18934	5.6882
5.15836	5.6914
5.12775	5.6914
5.09749	5.685
5.0676	5.6811
5.03805	5.6728
5.00884	5.6621
4.97998	5.6616
4.95144	5.6719
4.92322	5.6733
4.89533	5.6723
4.86775	5.6692
4.84048	5.6677
4.81351	5.6675
4.78684	5.6843
4.76047	5.6797
4.73439	5.6833
4.70859	5.6794
4.68306	5.6753
4.65782	5.6694
4.63284	5.6802
4.60814	5.6816
4.58369	5.6792
4.5595	5.6626
4.53557	5.664
4.51188	5.656
4.48845	5.6489
4.46525	5.6406
4.44229	5.6316
4.41957	5.6272
4.39708	5.625
4.37481	5.623
4.35277	5.6289
4.33096	5.6235
4.30935	5.625
4.28797	5.6243
4.26679	5.6272
4.24583	5.6184
4.22506	5.6306
4.2045	5.623
4.18414	5.6211
4.16398	5.6225
4.14401	5.6098
4.12423	5.612
4.10464	5.6042
4.08523	5.6113
4.066	5.5989
4.04696	5.5915
4.02809	5.5835
4.0094	5.5771
3.99088	5.5642
3.97253	5.5571
3.95435	5.5549
3.93634	5.5559
3.91848	5.55
3.90079	5.5452
3.88326	5.5481
3.86589	5.5347
3.84867	5.5161
3.8316	5.5232
3.81468	5.5198
3.79791	5.5176
3.78129	5.5286
3.76482	5.5198
3.74848	5.5188
3.73229	5.5176
3.71624	5.5029
3.70032	5.4885
3.68454	5.4892
3.6689	5.479
3.65338	5.459
3.638	5.4551
3.62275	5.4607
3.60762	5.4548
3.59262	5.4514
3.57775	5.4385
3.56299	5.4265
3.54836	5.4277
3.53385	5.4194
3.51945	5.4487
3.50517	5.4507
3.49101	5.4158
3.47696	5.4099
3.46303	5.4155
3.4492	5.4131
3.43549	5.47
3.42188	5.4631
3.40838	5.3833
3.39499	5.3371
3.38171	5.332
3.36852	5.3332
3.35544	5.3154
3.34246	5.2934
3.32958	5.2832
3.3168	5.2681
3.30411	5.2529
3.29153	5.2432
3.27903	5.2383
3.26664	5.2239
3.25433	5.2192
3.24212	5.2002
3.23	5.1853
3.21797	5.1797
3.20603	5.175
3.19418	5.157
3.18241	5.1391
3.17074	5.1326
3.15914	5.1191
3.14763	5.1001
3.13621	5.0803
3.12487	5.0661
3.11361	5.0715
3.10243	5.0452
3.09133	5.0254
3.0803	5.0229
3.06936	5.0022
3.0585	4.9758
3.04771	4.9624
3.037	4.936
3.02636	4.938
3.0158	4.8979
3.00531	4.8867
2.99489	4.8725
2.98454	4.873
2.97427	4.8472
2.96407	4.8472
2.95393	4.8183
2.94387	4.7854
2.93387	4.7319
2.92394	4.7236
2.91408	4.7168
2.90429	4.7051
2.89456	4.688
2.88489	4.6445
2.87529	4.6059
2.86576	4.6099
2.85628	4.5674
2.84687	4.542
2.83752	4.5312
2.82823	4.5083
2.81901	4.5112
2.80984	4.5093
2.80073	4.4619
2.79168	4.436
2.78269	4.4204
2.77376	4.4199
2.76488	4.3916
2.75606	4.3276
2.7473	4.2959
2.73859	4.2827
2.72994	4.2829
2.72134	4.2742
2.7128	4.2554
2.70431	4.2397
2.69587	4.1997
2.68748	4.21
2.67915	4.2197
2.67087	4.186
2.66264	4.2082
2.65446	4.1938
2.64633	4.1733
2.63825	4.1086
2.63021	4.1299
2.62223	4.1272
2.6143	4.1152
2.60641	4.1011
2.59857	4.1089
2.59078	4.0654
2.58304	4.0539
2.57534	4.0715
2.56768	4.0381
2.56008	4.0159
2.55251	4.0166
2.54499	4.0288
2.53752	4.0354
2.53009	4.0041
2.5227	3.9995
2.51536	3.9905
2.50806	3.9707
2.5008	4.0276
2.49358	4.0078
2.4864	3.9624
2.47927	3.9524
2.47218	3.9746
2.46512	3.928
2.45811	3.9805
2.45114	3.9785
2.4442	3.9385
2.43731	3.9409
2.43045	3.9248
2.42363	3.9116
2.41685	3.9463
2.41011	3.9316
2.40341	3.9141
2.39674	3.9309
2.39011	3.9416
2.38352	3.9131
2.37696	3.928
2.37044	3.9416
2.36395	3.937
2.35751	3.9145
2.35109	3.9512
2.34471	3.9204
2.33836	3.935
2.33205	3.9297
2.32578	3.9512
2.31953	3.9482
2.31332	3.9556
2.30714	3.9629
2.301	3.9687
2.29489	3.9546
2.28881	3.9443
2.28276	3.9287
2.27675	3.9453
2.27076	3.9482
2.26481	3.9766
2.25889	3.9336
2.253	3.9595
2.24714	3.936
2.24131	3.937
2.23551	3.9419
2.22974	3.9399
2.224	3.9556
2.21829	3.956
2.21261	3.956
2.20696	3.8906
2.20134	3.9238
2.19574	3.9307
2.19018	3.9072
2.18464	3.9126
2.17913	3.9043
2.17365	3.9145
2.16819	3.9375
2.16277	3.9023
2.15737	3.9355
2.15199	3.917
2.14665	3.9145
2.14133	3.8896
2.13603	3.8516
2.13077	3.9141
2.12552	3.9512
2.12031	3.8808
2.11512	3.8872
2.10995	3.9111
2.10481	3.8931
2.0997	3.8794
2.09461	3.897
2.08954	3.9004
2.0845	3.8867
2.07948	3.8721
