Name: Hypersthene (Mg,Fe+2)2Si2O6
Type: Mineral
Class: Silicates
Subclass: Inosilicates (Pyroxene Group)
Particle Size: Fine  (Less than 2 micrometer)
Sample No.: hypersth.1
Owner: JHU
Wavelength Range: IR
Origin: Western Greenland, via the Smithsonian (sample no. NMNH
Description: Black in color; a small amount of surface contamination
Measurement: Transmission
X Units: Wavelength (micrometers)
Y Units: Transmittance (percent)
wavelength	value
25.0442	60.7967
24.3388	63.9725
23.6719	63.0643
23.0407	58.0409
22.4422	52.4647
21.8741	51.8866
21.334	55.6639
20.8199	52.621
20.33	46.5985
19.8627	43.1415
19.4163	46.5126
18.9896	52.9842
18.5812	53.3299
18.19	57.3211
17.815	59.5789
17.4551	66.2225
17.1094	73.2195
16.7772	77.992
16.4576	80.7312
16.15	80.2537
15.8537	75.889
15.568	74.8108
15.2925	77.0184
15.0265	80.7361
14.7697	79.7054
14.5214	76.4197
14.2814	80.6697
14.0492	81.449
13.8244	79.3807
13.6067	82.5647
13.3957	80.4475
13.1912	79.8709
12.9929	82.1194
12.8004	81.6717
12.6135	79.0765
12.432	75.3162
12.2557	70.5477
12.0843	64.4007
11.9176	59.4984
11.7555	55.5047
11.5977	53.9418
11.444	52.9379
11.2944	54.0624
11.1487	55.621
11.0067	55.9261
10.8682	50.2806
10.7332	46.6
10.6015	44.9882
10.473	46.2011
10.3476	48.4628
10.2251	54.6131
10.1056	56.8292
9.98873	54.3839
9.87458	52.3768
9.763	50.5526
9.65392	50.7889
9.54724	48.7928
9.44291	47.6986
9.34082	48.766
9.24091	50.4789
9.14312	54.4457
9.04739	59.0057
8.95363	62.4129
8.8618	66.2938
8.77183	69.086
8.68368	72.3797
8.59727	74.6836
8.51257	76.3455
8.42951	77.9812
8.34807	79.4776
8.26819	80.8372
8.18981	82.0389
8.11292	83.1223
8.03745	84.055
7.96337	85.0547
7.89064	85.8203
7.81924	86.3223
7.74911	86.9368
7.68023	87.45
7.61256	87.9766
7.54608	88.4607
7.48074	88.8762
7.41653	89.2207
7.35341	89.5965
7.29136	90.0042
7.23034	90.2385
7.17033	90.9988
7.11132	91.3269
7.05327	91.2976
6.99616	91.6033
6.93996	92.0127
6.88467	92.1438
6.83024	92.1963
6.77667	92.2979
6.72393	92.4519
6.67201	92.7
6.62089	92.8728
6.57054	93.1162
6.52095	93.134
6.4721	93.2195
6.42398	93.3001
6.37657	93.2551
6.32986	93.208
6.28382	93.2449
6.23845	93.3489
6.19373	93.3943
6.14965	93.0342
6.10619	93.0369
6.06334	93.1863
6.02109	93.8848
5.97942	94.6309
5.93832	94.3264
5.89778	94.0486
5.8578	94.0085
5.81835	94.1272
5.77943	94.0906
5.74103	94.1436
5.70314	94.0115
5.66574	93.9348
5.62883	93.8916
5.5924	93.8606
5.55644	93.9158
5.52093	93.8377
5.48588	93.7742
5.45127	93.7783
5.41709	93.7688
5.38334	93.7107
5.35	93.6829
5.31708	93.6668
5.28456	93.5254
5.25243	93.4089
5.2207	93.3132
5.18934	93.2463
5.15836	93.2188
5.12775	93.1746
5.09749	93.1502
5.0676	93.113
5.03805	93.1462
5.00884	93.0742
4.97998	93.0283
4.95144	93.0147
4.92322	92.8943
4.89533	92.8142
4.86775	92.751
4.84048	92.667
4.81351	92.6336
4.78684	92.6189
4.76047	92.5266
4.73439	92.4177
4.70859	92.3623
4.68306	92.242
4.65782	92.2224
4.63284	92.1856
4.60814	92.2539
4.58369	92.0674
4.5595	91.9502
4.53557	91.8381
4.51188	91.7498
4.48845	91.6843
4.46525	91.5769
4.44229	91.4756
4.41957	91.4177
4.39708	91.2859
4.37481	91.2566
4.35277	91.1133
4.33096	91.0681
4.30935	90.9619
4.28797	90.8438
4.26679	90.7654
4.24583	90.6492
4.22506	90.5774
4.2045	90.4397
4.18414	90.3772
4.16398	90.2952
4.14401	90.1301
4.12423	90.0906
4.10464	89.9588
4.08523	89.8342
4.066	89.7512
4.04696	89.6765
4.02809	89.5916
4.0094	89.4778
3.99088	89.3572
3.97253	89.2302
3.95435	89.1643
3.93634	89.0462
3.91848	88.9636
3.90079	88.9065
3.88326	88.7664
3.86589	88.6653
3.84867	88.6057
3.8316	88.5261
3.81468	88.3753
3.79791	88.3035
3.78129	88.1472
3.76482	88.0535
3.74848	88.0217
3.73229	87.865
3.71624	87.7713
3.70032	87.6394
3.68454	87.5706
3.6689	87.4124
3.65338	87.303
3.638	87.2327
3.62275	87.1101
3.60762	86.9383
3.59262	86.8748
3.57775	86.801
3.56299	86.657
3.54836	86.5222
3.53385	86.4158
3.51945	86.18
3.50517	86.0506
3.49101	86.0315
3.47696	85.8479
3.46303	85.7718
3.4492	85.6199
3.43549	85.5652
3.42188	85.323
3.40838	85.1995
3.39499	85.2288
3.38171	85.2205
3.36852	85.2132
3.35544	84.9412
3.34246	84.9031
3.32958	84.7757
3.3168	84.6956
3.30411	84.637
3.29153	84.5218
3.27903	84.3831
3.26664	84.2776
3.25433	84.137
3.24212	84.0887
3.23	83.949
3.21797	83.9178
3.20603	83.7425
3.19418	83.659
3.18241	83.5291
3.17074	83.3611
3.15914	83.1917
3.14763	83.0745
3.13621	82.867
3.12487	82.8396
3.11361	82.6643
3.10243	82.387
3.09133	82.137
3.0803	81.9119
3.06936	81.7342
3.0585	81.5564
3.04771	81.428
3.037	81.2537
3.02636	81.0921
3.0158	80.824
3.00531	80.5979
2.99489	80.3025
2.98454	80.0467
2.97427	79.6609
2.96407	79.4617
2.95393	78.9998
2.94387	78.6775
2.93387	78.5379
2.92394	78.3611
2.91408	78.2615
2.90429	78.1414
2.89456	78.1131
2.88489	77.7713
2.87529	77.6687
2.86576	77.6307
2.85628	77.5662
2.84687	77.4969
2.83752	77.5242
2.82823	77.5145
2.81901	77.7137
2.80984	77.6385
2.80073	77.618
2.79168	77.6307
2.78269	77.8025
2.77376	77.7869
2.76488	77.8709
2.75606	77.9998
2.7473	77.9852
2.73859	78.0799
2.72994	77.7342
2.72134	77.6893
2.7128	77.8904
2.70431	77.9695
2.69587	77.949
2.68748	77.9783
2.67915	77.8689
2.67087	77.8318
2.66264	77.5721
2.65446	77.5477
2.64633	77.3953
2.63825	77.2674
2.63021	77.1287
2.62223	76.9803
2.6143	76.9021
2.60641	76.8641
2.59857	76.7029
2.59078	76.576
2.58304	76.66
2.57534	76.3123
2.56768	76.0701
2.56008	76.1414
2.55251	75.9109
2.54499	75.7781
2.53752	75.7654
2.53009	75.4881
2.5227	75.324
2.51536	75.2469
2.50806	75.2225
2.5008	75.0008
2.49358	74.8982
2.4864	74.8748
2.47927	74.5682
2.47218	74.3455
2.46512	74.4217
2.45811	74.4803
2.45114	74.201
2.4442	74.0154
2.43731	73.9022
2.43045	73.7029
2.42363	73.6658
2.41685	73.6209
2.41011	73.4197
2.40341	73.1736
2.39674	73.3201
2.39011	72.9998
2.38352	72.8787
2.37696	72.7654
2.37044	72.7733
2.36395	72.7811
2.35751	72.5193
2.35109	72.3592
2.34471	72.3553
2.33836	72.1346
2.33205	72.0721
2.32578	72.035
2.31953	71.9803
2.31332	71.8455
2.30714	71.5467
2.301	71.6502
2.29489	71.5018
2.28881	71.4412
2.28276	71.369
2.27675	70.994
2.27076	70.949
2.26481	71.0545
2.25889	70.9022
2.253	70.744
2.24714	70.7186
2.24131	70.5389
2.23551	70.6092
2.22974	70.4393
2.224	70.4139
2.21829	70.4373
2.21261	70.3299
2.20696	70.1502
2.20134	69.9002
2.19574	70.0272
2.19018	70.0154
2.18464	69.9158
2.17913	69.6971
2.17365	69.7264
2.16819	69.6346
2.16277	69.744
2.15737	69.6951
2.15199	69.4158
2.14665	69.408
2.14133	69.3221
2.13603	69.2362
2.13077	69.3377
2.12552	69.4237
2.12031	69.199
2.11512	68.9998
2.10995	68.9471
2.10481	68.9061
2.0997	69.2576
2.09461	68.8846
2.08954	69.0018
2.0845	68.867
2.07948	68.867
