Name: Anorthite CaAl2Si2O8
Type: Mineral (Synthetic)
Class: Silicates
Subclass: Tectosilicates (Framework silicates) (Feldspar Group)
Particle Size: Fine (less than 2 Micrometers)
Sample No.: anorthite.1
Owner: JHU
Wavelength Range: IR
Origin: Sample from Bruce Hemingway, USGS; synthesized by James
Description: The sample was a coarse white powder.  The sample
Measurement: Transmission
X Units: Wavelength (micrometers)
Y Units: Transmittance (percent)
wavelength	value
25.044	58.992
24.339	62.0233
23.672	66.4295
23.041	71.1639
22.442	77.5389
21.874	77.9939
21.334	74.8689
20.82	75.1326
20.33	78.5115
19.863	79.4412
19.416	72.907
18.99	64.2147
18.581	49.496
18.19	53.1444
17.815	46.3134
17.455	43.4296
17.109	43.5907
16.777	48.2479
16.458	49.0096
16.15	45.5233
15.854	54.1366
15.568	70.2694
15.292	75.5779
15.027	67.1873
14.77	66.8514
14.521	70.1053
14.281	72.8104
14.049	73.4969
13.824	68.678
13.607	68.6195
13.396	70.2088
13.191	66.6019
12.993	72.7264
12.8	79.5623
12.614	82.6228
12.432	81.0486
12.256	76.6932
12.084	70.6175
11.918	64.4744
11.755	60.2542
11.598	56.3265
11.444	49.2093
11.294	40.1835
11.149	31.3183
11.007	26.3515
10.868	22.1782
10.733	21.0888
10.602	22.7934
10.473	25.7021
10.348	29.9667
10.225	34.8847
10.106	35.7094
9.989	36.3524
9.875	35.9086
9.763	35.2733
9.654	38.0019
9.547	42.6386
9.443	45.5336
9.341	44.4008
9.241	40.9809
9.143	39.6156
9.047	41.3129
8.954	42.9852
8.862	41.3056
8.772	38.9159
8.684	39.037
8.597	44.1635
8.513	51.2235
8.43	58.6561
8.348	65.2664
8.268	70.7881
8.19	74.9109
8.113	77.6941
8.037	79.9278
7.963	81.6023
7.891	82.9619
7.819	84.114
7.749	85.198
7.68	85.9619
7.613	86.6033
7.546	87.1653
7.481	87.5479
7.417	87.7383
7.353	87.7696
7.291	87.5066
7.23	86.9158
7.17	85.5584
7.111	84.1553
7.053	82.8963
6.996	82.8711
6.94	83.1155
6.885	83.9822
6.83	85.2429
6.777	86.4695
6.724	87.7634
6.672	88.9011
6.621	89.8972
6.571	90.7988
6.521	91.6531
6.472	92.4368
6.424	93.0618
6.377	93.4736
6.33	93.676
6.284	93.7891
6.238	93.8135
6.194	93.8916
6.15	94.0752
6.106	94.4753
6.063	95.0928
6.021	95.4124
5.979	95.5195
5.938	96.3855
5.898	96.9499
5.858	97.3611
5.818	97.6804
5.779	97.8154
5.741	98.1589
5.703	98.459
5.666	98.6592
5.629	98.8027
5.592	98.8371
5.556	98.8594
5.521	99.1533
5.486	99.2693
5.451	99.4343
5.417	99.6006
5.383	99.6531
5.35	99.8015
5.317	99.9646
5.285	100.091
5.252	100.189
5.221	100.333
5.189	100.491
5.158	100.647
5.128	100.754
5.097	100.851
5.068	100.945
5.038	101.019
5.009	101.139
4.98	101.257
4.951	101.382
4.923	101.409
4.895	101.52
4.868	101.632
4.84	101.728
4.814	101.785
4.787	101.876
4.76	101.99
4.734	102.036
4.709	102.089
4.683	102.155
4.658	102.167
4.633	102.346
4.608	102.402
4.584	102.549
4.56	102.561
4.536	102.622
4.512	102.678
4.488	102.75
4.465	102.845
4.442	102.887
4.42	102.979
4.397	103.045
4.375	103.221
4.353	103.228
4.331	103.344
4.309	103.398
4.288	103.472
4.267	103.57
4.246	103.658
4.225	103.707
4.205	103.711
4.184	103.779
4.164	103.862
4.144	103.882
4.124	103.961
4.105	104.012
4.085	104.045
4.066	104.092
4.047	104.162
4.028	104.218
4.009	104.225
3.991	104.168
3.973	104.151
3.954	104.322
3.936	104.463
3.918	104.602
3.901	104.631
3.883	104.624
3.866	104.647
3.849	104.756
3.832	104.761
3.815	104.807
3.798	104.89
3.781	105.031
3.765	105.026
3.748	105.076
3.732	105.133
3.716	105.195
3.7	105.177
3.685	105.242
3.669	105.293
3.653	105.426
3.638	105.425
3.623	105.483
3.608	105.435
3.593	105.543
3.578	105.556
3.563	105.651
3.548	105.677
3.534	105.703
3.519	105.834
3.505	105.983
3.491	105.951
3.477	105.844
3.463	105.936
3.449	106.109
3.435	106.216
3.422	106.537
3.408	106.379
3.395	106.223
3.382	106.168
3.369	106.17
3.355	106.091
3.342	106.061
3.33	106.106
3.317	106.129
3.304	106.105
3.292	106.175
3.279	106.233
3.267	106.224
3.254	106.204
3.242	106.31
3.23	106.236
3.218	106.218
3.206	106.232
3.194	106.228
3.182	106.197
3.171	106.255
3.159	106.224
3.148	106.121
3.136	106.052
3.125	106.058
3.114	106.127
3.102	106.121
3.091	106.216
3.08	106.322
3.069	106.392
3.058	106.294
3.048	106.486
3.037	106.373
3.026	106.408
3.016	106.267
3.005	106.26
2.995	106.29
2.985	106.265
2.974	106.185
2.964	105.882
2.954	105.798
2.944	105.804
2.934	105.758
2.924	105.773
2.914	105.742
2.904	105.918
2.895	106.25
2.885	106.547
2.875	106.914
2.866	107.294
2.856	107.812
2.847	108.193
2.838	108.418
2.828	108.598
2.819	108.832
2.81	108.89
2.801	109.199
2.792	109.609
2.783	109.977
2.774	110.174
2.765	110.441
2.756	110.886
2.747	111.457
2.739	111.82
2.73	112.063
2.721	112.222
2.713	112.45
2.704	112.626
2.696	112.962
2.687	113.179
2.679	113.336
2.671	113.632
2.663	113.751
2.654	113.726
2.646	113.798
2.638	114.047
2.63	114.086
2.622	114.334
2.614	114.359
2.606	114.484
2.599	114.599
2.591	114.816
2.583	114.957
2.575	114.957
2.568	115.027
2.56	115.219
2.553	115.197
2.545	115.433
2.538	115.59
2.53	115.492
2.523	115.566
2.515	115.871
2.508	115.98
2.501	116.002
2.494	116.097
2.486	116.355
2.479	116.586
2.472	116.611
2.465	116.752
2.458	116.738
2.451	116.89
2.444	116.847
2.437	117.34
2.43	117.281
2.424	117.16
2.417	117.422
2.41	117.814
2.403	117.666
2.397	117.627
2.39	117.672
2.384	118.172
2.377	118.244
2.37	118.367
2.364	118.398
2.358	118.281
2.351	118.4
2.345	118.718
2.338	118.799
2.332	118.908
2.326	118.734
2.32	119.07
2.313	119.213
2.307	119.424
2.301	119.236
2.295	119.476
2.289	119.648
2.283	119.525
2.277	119.549
2.271	119.55
2.265	119.816
2.259	119.886
2.253	119.922
2.247	119.953
2.241	120.07
2.236	120.316
2.23	120.062
2.224	120.101
2.218	120.246
2.213	120.172
2.207	120.472
2.201	120.605
2.196	120.531
2.19	120.781
2.185	120.504
2.179	120.55
2.174	120.859
2.168	120.879
2.163	120.972
2.157	120.859
2.152	121.054
2.147	120.906
2.141	120.98
2.136	120.922
2.131	120.726
2.126	120.445
2.12	121.175
2.115	121.191
2.11	120.929
2.105	120.875
2.1	121.156
2.095	120.894
2.09	121.097
2.085	121.453
2.079	120.726
