Name: Hornblende Ca2(Fe2+,Mg)4Al(Si7,Al)O22(OH,F)2
Type: Mineral
Class: Silicates
Subclass: Inosilicates (Amphibole Group)
Particle Size: Solid (cleavage face)
Sample No.: hornblen.2
Owner: JHU
Wavelength Range: IR
Origin: Kragero, Norway via the Smithsonian (sample no. NMNH
Description: Sample was a fragment of a black crystal, contaminated
Measurement: Bidirectional reflectance
X Units: Wavelength (micrometers)
Y Units: Reflectance (percent)
wavelength	value
25.0442	19.0771
24.3388	20.5976
23.6719	22.809
23.0407	26.5937
22.4422	32.2306
21.8741	34.3088
21.334	33.2958
20.8199	34.9452
20.33	34.7152
19.8627	36.1381
19.4163	39.5087
18.9896	42.5639
18.5812	40.831
18.19	37.143
17.815	36.6901
17.4551	28.6752
17.1094	17.0419
16.7772	9.6853
16.4576	7.2375
16.15	6.8493
15.8537	7.3657
15.568	8.1672
15.2925	8.5803
15.0265	8.7219
14.7697	9.5898
14.5214	10.5012
14.2814	8.9416
14.0492	8.0263
13.8244	8.4333
13.6067	8.9389
13.3957	9.8108
13.1912	11.5549
12.9929	9.133
12.8004	8.8843
12.6135	9.458
12.432	10.0227
12.2557	10.5488
12.0843	11.0351
11.9176	11.6591
11.7555	12.2544
11.5977	12.8872
11.444	13.5717
11.2944	14.6423
11.1487	15.7837
11.0067	17.2407
10.8682	18.2619
10.7332	18.0571
10.6015	22.9265
10.473	27.7851
10.3476	30.2487
10.2251	32.2546
10.1056	34.7709
9.98873	34.2751
9.87458	30.2336
9.763	23.6967
9.65392	24.4885
9.54724	24.758
9.44291	25.7729
9.34082	26.4548
9.24091	26.0771
9.14312	24.5466
9.04739	23.4894
8.95363	24.3845
8.8618	25.0124
8.77183	25.2985
8.68368	22.1708
8.59727	16.3249
8.51257	11.3244
8.42951	6.8979
8.34807	3.7593
8.26819	2.6658
8.18981	2.7368
8.11292	3.0251
8.03745	3.3474
7.96337	3.6601
7.89064	3.9394
7.81924	4.2204
7.74911	4.4675
7.68023	4.7024
7.61256	4.905
7.54608	5.0845
7.48074	5.2373
7.41653	5.3931
7.35341	5.5447
7.29136	5.697
7.23034	5.8169
7.17033	5.9531
7.11132	6.0766
7.05327	6.1821
6.99616	6.2954
6.93996	6.3928
6.88467	6.4936
6.83024	6.5962
6.77667	6.7212
6.72393	6.8308
6.67201	6.9302
6.62089	7.0295
6.57054	7.1062
6.52095	7.1653
6.4721	7.2014
6.42398	7.2019
6.37657	7.1877
6.32986	7.1206
6.28382	7.041
6.23845	7.0124
6.19373	7.0129
6.14965	7.0383
6.10619	7.0827
6.06334	7.1865
6.02109	7.2622
5.97942	7.2356
5.93832	7.2273
5.89778	7.3491
5.8578	7.4939
5.81835	7.5683
5.77943	7.6687
5.74103	7.7678
5.70314	7.8012
5.66574	7.8467
5.62883	7.9048
5.5924	7.9953
5.55644	8.1079
5.52093	8.2136
5.48588	8.2138
5.45127	8.2864
5.41709	8.3496
5.38334	8.3447
5.35	8.301
5.31708	8.416
5.28456	8.5107
5.25243	8.654
5.2207	8.8957
5.18934	8.9463
5.15836	8.8984
5.12775	8.895
5.09749	8.9514
5.0676	9.0207
5.03805	9.105
5.00884	9.1914
4.97998	9.2761
4.95144	9.3572
4.92322	9.4621
4.89533	9.549
4.86775	9.6179
4.84048	9.6281
4.81351	9.6704
4.78684	9.8452
4.76047	10.0395
4.73439	10.218
4.70859	10.3547
4.68306	10.5219
4.65782	10.7295
4.63284	10.9458
4.60814	11.1487
4.58369	11.2986
4.5595	11.4917
4.53557	11.6323
4.51188	11.7434
4.48845	11.8379
4.46525	11.9436
4.44229	12.0207
4.41957	12.0964
4.39708	12.1606
4.37481	12.2053
4.35277	12.2253
4.33096	12.2844
4.30935	12.3166
4.28797	12.3525
4.26679	12.3833
4.24583	12.4301
4.22506	12.4714
4.2045	12.4773
4.18414	12.5212
4.16398	12.5615
4.14401	12.5757
4.12423	12.6086
4.10464	12.6535
4.08523	12.7016
4.066	12.7385
4.04696	12.7712
4.02809	12.8012
4.0094	12.8315
3.99088	12.8518
3.97253	12.8913
3.95435	12.9233
3.93634	12.9546
3.91848	12.9926
3.90079	13.0368
3.88326	13.0595
3.86589	13.0842
3.84867	13.1074
3.8316	13.122
3.81468	13.1401
3.79791	13.1599
3.78129	13.1848
3.76482	13.2038
3.74848	13.2036
3.73229	13.2099
3.71624	13.2168
3.70032	13.207
3.68454	13.2304
3.6689	13.2253
3.65338	13.2299
3.638	13.2295
3.62275	13.2365
3.60762	13.2324
3.59262	13.2282
3.57775	13.2114
3.56299	13.1936
3.54836	13.1765
3.53385	13.1433
3.51945	13.0722
3.50517	12.8952
3.49101	12.9743
3.47696	12.9787
3.46303	12.9929
3.4492	12.9074
3.43549	12.7768
3.42188	12.5505
3.40838	12.5666
3.39499	12.6421
3.38171	12.601
3.36852	12.6198
3.35544	12.6303
3.34246	12.6169
3.32958	12.6455
3.3168	12.6526
3.30411	12.666
3.29153	12.718
3.27903	12.7326
3.26664	12.7138
3.25433	12.6579
3.24212	12.6147
3.23	12.5683
3.21797	12.5329
3.20603	12.4912
3.19418	12.4301
3.18241	12.3603
3.17074	12.332
3.15914	12.3259
3.14763	12.2924
3.13621	12.2505
3.12487	12.1933
3.11361	12.1413
3.10243	12.1277
3.09133	12.0935
3.0803	12.051
3.06936	12.0112
3.0585	11.969
3.04771	11.9253
3.037	11.893
3.02636	11.8618
3.0158	11.7883
3.00531	11.7656
2.99489	11.7258
2.98454	11.6902
2.97427	11.6211
2.96407	11.5947
2.95393	11.5945
2.94387	11.5942
2.93387	11.5732
2.92394	11.5493
2.91408	11.5473
2.90429	11.5368
2.89456	11.5293
2.88489	11.5122
2.87529	11.5009
2.86576	11.4856
2.85628	11.4834
2.84687	11.5166
2.83752	11.519
2.82823	11.4873
2.81901	11.4824
2.80984	11.5263
2.80073	11.601
2.79168	11.6684
2.78269	11.6299
2.77376	11.374
2.76488	10.9062
2.75606	10.2822
2.7473	9.5959
2.73859	9.6167
2.72994	8.6299
2.72134	8.4848
2.7128	11.2226
2.70431	11.2373
2.69587	11.313
2.68748	11.8139
2.67915	12.7827
2.67087	13.5405
2.66264	13.6775
2.65446	13.634
2.64633	13.5822
2.63825	13.5835
2.63021	13.5454
2.62223	13.5466
2.6143	13.5324
2.60641	13.4897
2.59857	13.5234
2.59078	13.4863
2.58304	13.4467
2.57534	13.4611
2.56768	13.4336
2.56008	13.4084
2.55251	13.4094
2.54499	13.4528
2.53752	13.4467
2.53009	13.4455
2.5227	13.4004
2.51536	13.3608
2.50806	13.3684
2.5008	13.3393
2.49358	13.3576
2.4864	13.313
2.47927	13.2959
2.47218	13.31
2.46512	13.2382
2.45811	13.2783
2.45114	13.3361
2.4442	13.2912
2.43731	13.2717
2.43045	13.2983
2.42363	13.2187
2.41685	13.0959
2.41011	13.0324
2.40341	12.8606
2.39674	12.6103
2.39011	12.4511
2.38352	12.5022
2.37696	12.7395
2.37044	12.9348
2.36395	13.0774
2.35751	13.1584
2.35109	13.1601
2.34471	13.1154
2.33836	12.8479
2.33205	12.5031
2.32578	12.2014
2.31953	12.0996
2.31332	12.123
2.30714	12.2827
2.301	12.4101
2.29489	12.6172
2.28881	12.9179
2.28276	13.1064
2.27675	13.31
2.27076	13.4287
2.26481	13.5341
2.25889	13.5717
2.253	13.5102
2.24714	13.5454
2.24131	13.6562
2.23551	13.7983
2.22974	13.8071
2.224	13.8579
2.21829	13.8466
2.21261	13.8925
2.20696	13.8662
2.20134	13.9463
2.19574	13.9199
2.19018	13.9707
2.18464	13.9712
2.17913	13.9716
2.17365	14.0005
2.16819	14.0957
2.16277	14.0654
2.15737	14.0883
2.15199	14.0439
2.14665	14.0825
2.14133	14.1347
2.13603	14.1274
2.13077	14.0996
2.12552	14.1181
2.12031	14.1679
2.11512	14.1914
2.10995	14.2656
2.10481	14.2309
2.0997	14.2934
2.09461	14.3408
2.08954	14.3559
2.0845	14.3828
2.07948	14.3613
