Name: Nepheline (Na,K)AlSiO4
Type: Mineral
Class: Silicates
Subclass: Tectosilicates (Framework Silicates); (Feldspathoid Group)
Particle Size: Fine  (0-74  Micrometers)
Sample No.: nephel.2
Owner: JHU
Wavelength Range: IR
Origin: Brevig, Norway via Norma Vergo
Description: The hand sample was a massive chunk of unusually dark
Measurement: Bidirectional reflectance
X Units: Wavelength (micrometers)
Y Units: Reflectance (percent)
wavelength	value
25.0442	1.0071
24.3388	1.0498
23.6719	0.9233
23.0407	1.0063
22.4422	1.0974
21.8741	1.1892
21.334	1.5024
20.8199	1.5244
20.33	0.9744
19.8627	0.6243
19.4163	0.856
18.9896	0.9011
18.5812	0.5427
18.19	0.459
17.815	0.8743
17.4551	1.0437
17.1094	1.1956
16.7772	1.6191
16.4576	1.7068
16.15	1.6921
15.8537	1.5828
15.568	1.5642
15.2925	1.428
15.0265	1.1538
14.7697	0.8848
14.5214	0.7632
14.2814	0.6472
14.0492	0.5049
13.8244	0.3975
13.6067	0.3772
13.3957	0.5022
13.1912	0.782
12.9929	1.0618
12.8004	1.5415
12.6135	2.2407
12.432	2.8352
12.2557	3.0935
12.0843	3.1829
11.9176	3.156
11.7555	3.0893
11.5977	2.9419
11.444	2.7583
11.2944	2.4966
11.1487	2.0518
11.0067	1.5461
10.8682	1.2664
10.7332	1.1931
10.6015	1.1528
10.473	1.1069
10.3476	1.2134
10.2251	1.4116
10.1056	1.4778
9.98873	1.5525
9.87458	1.6067
9.763	1.5906
9.65392	1.5271
9.54724	1.6003
9.44291	1.3889
9.34082	1.1123
9.24091	1.0383
9.14312	1.2114
9.04739	1.3696
8.95363	1.3726
8.8618	1.4094
8.77183	1.4287
8.68368	1.3804
8.59727	1.1914
8.51257	0.8591
8.42951	0.5447
8.34807	0.3508
8.26819	0.3018
8.18981	0.3279
8.11292	0.4297
8.03745	0.5974
7.96337	0.8242
7.89064	1.0999
7.81924	1.3862
7.74911	1.679
7.68023	1.9729
7.61256	2.2412
7.54608	2.4812
7.48074	2.6709
7.41653	2.8074
7.35341	2.8726
7.29136	2.8992
7.23034	2.9487
7.17033	3.0339
7.11132	3.1269
7.05327	3.2451
6.99616	3.4668
6.93996	3.7024
6.88467	3.8057
6.83024	3.7407
6.77667	3.6453
6.72393	3.6597
6.67201	3.7466
6.62089	3.9739
6.57054	4.3496
6.52095	4.8325
6.4721	5.249
6.42398	5.4665
6.37657	5.4614
6.32986	5.3052
6.28382	5.0683
6.23845	4.8149
6.19373	4.4673
6.14965	3.6418
6.10619	3.2312
6.06334	3.6147
6.02109	3.8852
5.97942	4.0386
5.93832	4.1643
5.89778	4.3183
5.8578	4.564
5.81835	4.9038
5.77943	5.2856
5.74103	5.6543
5.70314	6.0151
5.66574	6.3579
5.62883	6.6477
5.5924	6.8742
5.55644	7.1189
5.52093	7.4231
5.48588	7.7742
5.45127	8.1487
5.41709	8.5232
5.38334	8.893
5.35	9.2392
5.31708	9.5044
5.28456	9.6587
5.25243	9.6682
5.2207	9.4206
5.18934	8.9621
5.15836	8.5691
5.12775	8.2539
5.09749	8.2763
5.0676	8.4826
5.03805	8.7798
5.00884	8.9804
4.97998	9.1762
4.95144	9.1806
4.92322	9.0471
4.89533	8.947
4.86775	9.0029
4.84048	9.1753
4.81351	9.3813
4.78684	9.5974
4.76047	9.8703
4.73439	10.1421
4.70859	10.386
4.68306	10.6113
4.65782	10.8125
4.63284	10.9936
4.60814	11.1465
4.58369	11.3005
4.5595	11.4621
4.53557	11.6208
4.51188	11.7876
4.48845	11.9406
4.46525	12.0896
4.44229	12.2358
4.41957	12.3586
4.39708	12.4587
4.37481	12.541
4.35277	12.6128
4.33096	12.6543
4.30935	12.6906
4.28797	12.7324
4.26679	12.7719
4.24583	12.8142
4.22506	12.852
4.2045	12.894
4.18414	12.9306
4.16398	12.9565
4.14401	12.9922
4.12423	13.0276
4.10464	13.0581
4.08523	13.0932
4.066	13.1235
4.04696	13.1648
4.02809	13.1963
4.0094	13.2309
3.99088	13.2561
3.97253	13.2717
3.95435	13.2863
3.93634	13.3093
3.91848	13.3181
3.90079	13.3298
3.88326	13.3423
3.86589	13.3449
3.84867	13.3354
3.8316	13.3357
3.81468	13.3347
3.79791	13.3274
3.78129	13.3225
3.76482	13.3274
3.74848	13.3354
3.73229	13.3232
3.71624	13.3103
3.70032	13.2993
3.68454	13.2932
3.6689	13.2619
3.65338	13.2436
3.638	13.2273
3.62275	13.2063
3.60762	13.1797
3.59262	13.1545
3.57775	13.1128
3.56299	13.0769
3.54836	13.0351
3.53385	12.9756
3.51945	12.8943
3.50517	12.7434
3.49101	12.7121
3.47696	12.696
3.46303	12.6633
3.4492	12.5732
3.43549	12.4541
3.42188	12.2746
3.40838	12.2138
3.39499	12.2539
3.38171	12.2177
3.36852	12.1689
3.35544	12.134
3.34246	12.0671
3.32958	11.9841
3.3168	11.894
3.30411	11.791
3.29153	11.697
3.27903	11.6052
3.26664	11.4875
3.25433	11.3923
3.24212	11.2815
3.23	11.1745
3.21797	11.0647
3.20603	10.9585
3.19418	10.8215
3.18241	10.7009
3.17074	10.5739
3.15914	10.4326
3.14763	10.2876
3.13621	10.1355
3.12487	9.9914
3.11361	9.8413
3.10243	9.6545
3.09133	9.4834
3.0803	9.3176
3.06936	9.176
3.0585	9.0471
3.04771	8.9594
3.037	8.8818
3.02636	8.791
3.0158	8.6926
3.00531	8.5974
2.99489	8.4927
2.98454	8.3713
2.97427	8.2317
2.96407	8.0842
2.95393	7.9187
2.94387	7.7348
2.93387	7.5371
2.92394	7.2871
2.91408	7.0649
2.90429	6.8901
2.89456	6.7424
2.88489	6.5713
2.87529	6.3725
2.86576	6.2412
2.85628	6.2576
2.84687	6.3408
2.83752	6.3139
2.82823	6.1977
2.81901	6.1294
2.80984	6.1638
2.80073	6.3276
2.79168	6.4958
2.78269	6.5925
2.77376	6.7212
2.76488	7.0183
2.75606	7.6562
2.7473	8.7385
2.73859	9.9878
2.72994	10.9773
2.72134	11.7202
2.7128	12.2627
2.70431	12.6504
2.69587	12.9765
2.68748	13.1828
2.67915	13.362
2.67087	13.5009
2.66264	13.6211
2.65446	13.6928
2.64633	13.7663
2.63825	13.7741
2.63021	13.8105
2.62223	13.8156
2.6143	13.83
2.60641	13.8232
2.59857	13.8379
2.59078	13.7888
2.58304	13.7592
2.57534	13.7173
2.56768	13.685
2.56008	13.6242
2.55251	13.5693
2.54499	13.5161
2.53752	13.4819
2.53009	13.4765
2.5227	13.4707
2.51536	13.4714
2.50806	13.4756
2.5008	13.4961
2.49358	13.4941
2.4864	13.5288
2.47927	13.5625
2.47218	13.5664
2.46512	13.6006
2.45811	13.6362
2.45114	13.6757
2.4442	13.7353
2.43731	13.79
2.43045	13.8066
2.42363	13.8452
2.41685	13.862
2.41011	13.8881
2.40341	13.884
2.39674	13.8872
2.39011	13.9358
2.38352	13.9543
2.37696	13.9485
2.37044	13.9721
2.36395	13.987
2.35751	13.9941
2.35109	13.966
2.34471	13.9775
2.33836	13.9756
2.33205	13.9651
2.32578	13.9736
2.31953	13.9707
2.31332	13.9907
2.30714	14.0254
2.301	13.9907
2.29489	14.0246
2.28881	14.0119
2.28276	14.042
2.27675	14.0297
2.27076	14.0178
2.26481	14.0063
2.25889	14.0139
2.253	14.0351
2.24714	14.0371
2.24131	14.0781
2.23551	14.0656
2.22974	14.0708
2.224	14.1162
2.21829	14.1027
2.21261	14.1428
2.20696	14.1789
2.20134	14.2412
2.19574	14.1779
2.19018	14.257
2.18464	14.1926
2.17913	14.2561
2.17365	14.3313
2.16819	14.3422
2.16277	14.3134
2.15737	14.374
2.15199	14.4023
2.14665	14.4279
2.14133	14.4257
2.13603	14.4599
2.13077	14.4365
2.12552	14.5048
2.12031	14.4953
2.11512	14.5127
2.10995	14.5776
2.10481	14.601
2.0997	14.6406
2.09461	14.7216
2.08954	14.6953
2.0845	14.7568
2.07948	14.7583
