Name: Erionite (K2,Ca,Na2)2Al4Si14O36.15H2O
Type: Mineral
Class: Silicates
Subclass: Tectosilicates  (Zeolite Group)
Particle Size: Fine  (0-74 Micrometers)
Sample No.: erionite.1
Owner: JHU
Wavelength Range: IR
Origin: Donated by W. J. Ehmann;  Sample #15 from Rome, Oregon.
Description: The hand sample was a cream-colored, earthy mass.  As
Measurement: Bidirectional reflectance
X Units: Wavelength (micrometers)
Y Units: Reflectance (percent)
wavelength	value
25.0442	0.9709
24.3388	0.8401
23.6719	0.9084
23.0407	0.8721
22.4422	1.0561
21.8741	1.0732
21.334	0.8965
20.8199	0.9624
20.33	0.9194
19.8627	0.7659
19.4163	0.7192
18.9896	0.6914
18.5812	0.7153
18.19	0.665
17.815	0.5862
17.4551	0.5754
17.1094	0.5701
16.7772	0.5496
16.4576	0.5569
16.15	0.5439
15.8537	0.512
15.568	0.5266
15.2925	0.5818
15.0265	0.6035
14.7697	0.6362
14.5214	0.6155
14.2814	0.645
14.0492	0.699
13.8244	0.697
13.6067	0.7073
13.3957	0.707
13.1912	0.7178
12.9929	0.7031
12.8004	0.6538
12.6135	0.6357
12.432	0.6946
12.2557	0.8809
12.0843	1.1069
11.9176	1.3472
11.7555	1.4282
11.5977	1.3872
11.444	1.3286
11.2944	1.3442
11.1487	1.3813
11.0067	1.3708
10.8682	1.365
10.7332	1.3228
10.6015	1.24
10.473	1.1731
10.3476	1.0977
10.2251	0.9912
10.1056	0.9065
9.98873	0.8625
9.87458	0.8418
9.763	0.8689
9.65392	0.9158
9.54724	0.9631
9.44291	1.0088
9.34082	1.0286
9.24091	1.0176
9.14312	0.9829
9.04739	0.9333
8.95363	0.9023
8.8618	0.8611
8.77183	0.8264
8.68368	0.8149
8.59727	0.803
8.51257	0.8342
8.42951	0.8801
8.34807	0.9304
8.26819	0.9971
8.18981	1.0554
8.11292	1.1257
8.03745	1.168
7.96337	1.0388
7.89064	0.8376
7.81924	0.6858
7.74911	0.6663
7.68023	0.7466
7.61256	0.8645
7.54608	1.0466
7.48074	1.2275
7.41653	1.4116
7.35341	1.594
7.29136	1.7781
7.23034	1.9612
7.17033	2.0991
7.11132	2.2268
7.05327	2.314
6.99616	2.4358
6.93996	2.5845
6.88467	2.7141
6.83024	2.8154
6.77667	2.96
6.72393	3.1094
6.67201	3.2251
6.62089	3.3076
6.57054	3.3447
6.52095	3.4121
6.4721	3.4534
6.42398	3.4016
6.37657	3.2871
6.32986	3.0657
6.28382	2.7414
6.23845	2.271
6.19373	1.6877
6.14965	1.2434
6.10619	1.156
6.06334	1.3044
6.02109	1.5876
5.97942	1.9551
5.93832	2.3877
5.89778	2.8921
5.8578	3.3457
5.81835	3.7036
5.77943	4.0198
5.74103	4.1931
5.70314	4.2988
5.66574	4.3266
5.62883	4.2976
5.5924	4.2912
5.55644	4.3266
5.52093	4.4128
5.48588	4.5129
5.45127	4.6343
5.41709	4.6992
5.38334	4.7078
5.35	4.7314
5.31708	4.8725
5.28456	5.0329
5.25243	5.2436
5.2207	5.4482
5.18934	5.5801
5.15836	5.6611
5.12775	5.761
5.09749	5.8838
5.0676	5.9856
5.03805	6.1138
5.00884	6.2597
4.97998	6.4436
4.95144	6.678
4.92322	6.8545
4.89533	7.0603
4.86775	7.2092
4.84048	7.3056
4.81351	7.385
4.78684	7.4497
4.76047	7.5105
4.73439	7.5605
4.70859	7.602
4.68306	7.6396
4.65782	7.6999
4.63284	7.7458
4.60814	7.7912
4.58369	7.8503
4.5595	7.8999
4.53557	7.9472
4.51188	7.9763
4.48845	8.0303
4.46525	8.0791
4.44229	8.1548
4.41957	8.2329
4.39708	8.2927
4.37481	8.3755
4.35277	8.4426
4.33096	8.5053
4.30935	8.5669
4.28797	8.6413
4.26679	8.6704
4.24583	8.7893
4.22506	8.8847
4.2045	8.9641
4.18414	9.0307
4.16398	9.0976
4.14401	9.167
4.12423	9.2275
4.10464	9.299
4.08523	9.3547
4.066	9.4128
4.04696	9.4638
4.02809	9.5014
4.0094	9.5183
3.99088	9.5251
3.97253	9.5393
3.95435	9.5342
3.93634	9.539
3.91848	9.5232
3.90079	9.5034
3.88326	9.4634
3.86589	9.4265
3.84867	9.3745
3.8316	9.31
3.81468	9.2492
3.79791	9.1782
3.78129	9.1096
3.76482	9.0202
3.74848	8.9404
3.73229	8.8398
3.71624	8.7478
3.70032	8.6501
3.68454	8.5434
3.6689	8.4306
3.65338	8.3271
3.638	8.2138
3.62275	8.0954
3.60762	7.9704
3.59262	7.8381
3.57775	7.6987
3.56299	7.5483
3.54836	7.3767
3.53385	7.2012
3.51945	6.9455
3.50517	6.6264
3.49101	6.5234
3.47696	6.4289
3.46303	6.3237
3.4492	6.1318
3.43549	5.886
3.42188	5.5705
3.40838	5.3952
3.39499	5.3867
3.38171	5.2566
3.36852	5.1211
3.35544	5.0781
3.34246	4.9778
3.32958	4.8579
3.3168	4.7082
3.30411	4.5517
3.29153	4.3962
3.27903	4.2263
3.26664	4.0798
3.25433	3.9097
3.24212	3.7764
3.23	3.6152
3.21797	3.467
3.20603	3.3088
3.19418	3.167
3.18241	3.0347
3.17074	2.8933
3.15914	2.7617
3.14763	2.6318
3.13621	2.5107
3.12487	2.3784
3.11361	2.2605
3.10243	2.1699
3.09133	2.084
3.0803	2.0139
3.06936	1.98
3.0585	1.9368
3.04771	1.9053
3.037	1.8728
3.02636	1.8442
3.0158	1.7959
3.00531	1.7483
2.99489	1.7144
2.98454	1.6499
2.97427	1.5918
2.96407	1.5542
2.95393	1.5002
2.94387	1.4678
2.93387	1.4397
2.92394	1.4233
2.91408	1.3874
2.90429	1.3948
2.89456	1.3716
2.88489	1.3606
2.87529	1.3489
2.86576	1.3196
2.85628	1.2786
2.84687	1.25
2.83752	1.1999
2.82823	1.1631
2.81901	1.125
2.80984	1.0979
2.80073	1.0898
2.79168	1.092
2.78269	1.1042
2.77376	1.094
2.76488	1.1355
2.75606	1.2175
2.7473	1.3838
2.73859	1.6538
2.72994	2.0837
2.72134	2.7703
2.7128	3.738
2.70431	4.7246
2.69587	5.7075
2.68748	6.6335
2.67915	7.2744
2.67087	7.7571
2.66264	8.3181
2.65446	8.5998
2.64633	8.7837
2.63825	8.9358
2.63021	9.0493
2.62223	9.1555
2.6143	9.2297
2.60641	9.2629
2.59857	9.3459
2.59078	9.3872
2.58304	9.4043
2.57534	9.4519
2.56768	9.4712
2.56008	9.4956
2.55251	9.5051
2.54499	9.5405
2.53752	9.5661
2.53009	9.5976
2.5227	9.6245
2.51536	9.6614
2.50806	9.6933
2.5008	9.7334
2.49358	9.7783
2.4864	9.8215
2.47927	9.8745
2.47218	9.9345
2.46512	10.0044
2.45811	10.0532
2.45114	10.1321
2.4442	10.2153
2.43731	10.2798
2.43045	10.3823
2.42363	10.4494
2.41685	10.5517
2.41011	10.6301
2.40341	10.666
2.39674	10.7065
2.39011	10.7473
2.38352	10.7888
2.37696	10.8281
2.37044	10.8564
2.36395	10.8906
2.35751	10.9638
2.35109	11.0185
2.34471	11.0254
2.33836	11.0669
2.33205	11.0896
2.32578	11.0962
2.31953	11.0708
2.31332	11.0542
2.30714	11.0217
2.301	11.0239
2.29489	11.0649
2.28881	11.1191
2.28276	11.1845
2.27675	11.2092
2.27076	11.2002
2.26481	11.1909
2.25889	11.1904
2.253	11.1552
2.24714	11.1616
2.24131	11.1806
2.23551	11.1806
2.22974	11.2055
2.224	11.1601
2.21829	11.2134
2.21261	11.2287
2.20696	11.2627
2.20134	11.3105
2.19574	11.3738
2.19018	11.4092
2.18464	11.4531
2.17913	11.5195
2.17365	11.5356
2.16819	11.602
2.16277	11.6548
2.15737	11.6797
2.15199	11.6938
2.14665	11.6577
2.14133	11.6548
2.13603	11.6977
2.13077	11.6836
2.12552	11.7361
2.12031	11.7136
2.11512	11.6779
2.10995	11.6723
2.10481	11.6958
2.0997	11.6921
2.09461	11.687
2.08954	11.7065
2.0845	11.6936
2.07948	11.686
