Name: Hornblende Ca2(Fe2+,Mg)4Al(Si7,Al)O22(OH,F)2
Type: Mineral
Class: Silicates
Subclass: Inosilicates (Amphibole Group)
Particle Size: Fine  (0-74 micrometers)
Sample No.: hornblen.2
Owner: JHU
Wavelength Range: IR
Origin: Kragero, Norway via the Smithsonian (sample no. NMNH
Description: Sample was a fragment of a black crystal, contaminated
Measurement: Bidirectional reflectance
X Units: Wavelength (micrometers)
Y Units: Reflectance (percent)
wavelength	value
25.0442	2.3359
24.3388	2.4941
23.6719	2.2588
23.0407	2.5559
22.4422	2.7651
21.8741	2.9746
21.334	2.8926
20.8199	2.8914
20.33	2.8906
19.8627	2.751
19.4163	2.8965
18.9896	3.1055
18.5812	3.0806
18.19	3.0747
17.815	3.3725
17.4551	3.0771
17.1094	2.3664
16.7772	1.7136
16.4576	1.5881
16.15	1.5488
15.8537	1.554
15.568	1.3872
15.2925	1.374
15.0265	1.3918
14.7697	1.5415
14.5214	1.529
14.2814	1.6853
14.0492	1.9624
13.8244	2.0051
13.6067	1.9246
13.3957	1.7126
13.1912	1.613
12.9929	1.6355
12.8004	2.0227
12.6135	2.5503
12.432	2.8506
12.2557	2.979
12.0843	2.9719
11.9176	2.8076
11.7555	2.5019
11.5977	2.2595
11.444	2.0754
11.2944	1.8469
11.1487	1.7124
11.0067	1.677
10.8682	1.6416
10.7332	1.6621
10.6015	1.9158
10.473	2.1763
10.3476	2.3296
10.2251	2.4365
10.1056	2.5427
9.98873	2.4709
9.87458	2.249
9.763	1.938
9.65392	1.9053
9.54724	1.9206
9.44291	1.97
9.34082	2.0898
9.24091	2.3039
9.14312	2.3674
9.04739	2.2165
8.95363	2.3262
8.8618	2.6423
8.77183	3.3818
8.68368	4.0979
8.59727	3.3591
8.51257	2.3689
8.42951	1.7612
8.34807	1.6892
8.26819	2.0115
8.18981	2.5325
8.11292	3.0776
8.03745	3.6623
7.96337	4.2268
7.89064	4.7368
7.81924	5.1894
7.74911	5.5657
7.68023	5.9443
7.61256	6.2632
7.54608	6.4863
7.48074	6.6631
7.41653	6.8576
7.35341	7.1118
7.29136	7.4021
7.23034	7.6999
7.17033	7.977
7.11132	8.2239
7.05327	8.4665
6.99616	8.7207
6.93996	8.9407
6.88467	9.0998
6.83024	9.2407
6.77667	9.4438
6.72393	9.5913
6.67201	9.7077
6.62089	9.8178
6.57054	9.8684
6.52095	9.7514
6.4721	9.5488
6.42398	9.2873
6.37657	8.9919
6.32986	8.6574
6.28382	8.3496
6.23845	8.1538
6.19373	8.0957
6.14965	8.1814
6.10619	8.355
6.06334	8.6528
6.02109	8.8623
5.97942	8.8283
5.93832	8.7458
5.89778	8.7942
5.8578	8.9787
5.81835	9.0959
5.77943	9.2524
5.74103	9.4619
5.70314	9.5862
5.66574	9.6482
5.62883	9.7424
5.5924	9.9575
5.55644	10.186
5.52093	10.3462
5.48588	10.3943
5.45127	10.4778
5.41709	10.6572
5.38334	10.6892
5.35	10.6323
5.31708	10.7444
5.28456	11.0107
5.25243	11.1731
5.2207	11.4458
5.18934	11.4424
5.15836	11.2231
5.12775	11.1137
5.09749	11.2031
5.0676	11.3325
5.03805	11.5117
5.00884	11.7219
4.97998	11.9184
4.95144	12.1147
4.92322	12.341
4.89533	12.5949
4.86775	12.7961
4.84048	12.9411
4.81351	13.0615
4.78684	13.2993
4.76047	13.6027
4.73439	13.8979
4.70859	14.1587
4.68306	14.4438
4.65782	14.7612
4.63284	15.0798
4.60814	15.3881
4.58369	15.656
4.5595	15.9057
4.53557	16.0981
4.51188	16.226
4.48845	16.3679
4.46525	16.4711
4.44229	16.5629
4.41957	16.6369
4.39708	16.6914
4.37481	16.7341
4.35277	16.7551
4.33096	16.7678
4.30935	16.7851
4.28797	16.8105
4.26679	16.8552
4.24583	16.8735
4.22506	16.8967
4.2045	16.9089
4.18414	16.9235
4.16398	16.946
4.14401	16.9506
4.12423	16.9682
4.10464	16.9853
4.08523	17.0166
4.066	17.0368
4.04696	17.0651
4.02809	17.0976
4.0094	17.0993
3.99088	17.1169
3.97253	17.1274
3.95435	17.1552
3.93634	17.1716
3.91848	17.2116
3.90079	17.2338
3.88326	17.2563
3.86589	17.2519
3.84867	17.2539
3.8316	17.2463
3.81468	17.2573
3.79791	17.2563
3.78129	17.2585
3.76482	17.2683
3.74848	17.2629
3.73229	17.259
3.71624	17.2402
3.70032	17.2175
3.68454	17.1992
3.6689	17.1706
3.65338	17.1689
3.638	17.1596
3.62275	17.1535
3.60762	17.1379
3.59262	17.1213
3.57775	17.0976
3.56299	17.0532
3.54836	17.0168
3.53385	16.9604
3.51945	16.8437
3.50517	16.5522
3.49101	16.6008
3.47696	16.6179
3.46303	16.6066
3.4492	16.5151
3.43549	16.3706
3.42188	16.0498
3.40838	16.0097
3.39499	16.1433
3.38171	16.123
3.36852	16.1577
3.35544	16.164
3.34246	16.1582
3.32958	16.248
3.3168	16.2602
3.30411	16.3078
3.29153	16.3647
3.27903	16.4045
3.26664	16.3889
3.25433	16.3496
3.24212	16.2954
3.23	16.239
3.21797	16.1945
3.20603	16.1464
3.19418	16.0732
3.18241	15.9875
3.17074	15.9126
3.15914	15.9257
3.14763	15.9316
3.13621	15.8588
3.12487	15.7844
3.11361	15.7321
3.10243	15.7087
3.09133	15.6667
3.0803	15.6289
3.06936	15.5632
3.0585	15.5009
3.04771	15.4336
3.037	15.3701
3.02636	15.3042
3.0158	15.2307
3.00531	15.1562
2.99489	15.1223
2.98454	15.0752
2.97427	15.0175
2.96407	14.9438
2.95393	14.9223
2.94387	14.8916
2.93387	14.8598
2.92394	14.8288
2.91408	14.7966
2.90429	14.7905
2.89456	14.8012
2.88489	14.8042
2.87529	14.7382
2.86576	14.7058
2.85628	14.7133
2.84687	14.6562
2.83752	14.6196
2.82823	14.5337
2.81901	14.4724
2.80984	14.4824
2.80073	14.4775
2.79168	14.4458
2.78269	14.1963
2.77376	13.3706
2.76488	11.9233
2.75606	10.5825
2.7473	9.1386
2.73859	7.6887
2.72994	6.0039
2.72134	4.4302
2.7128	9.0112
2.70431	8.8345
2.69587	9.0166
2.68748	10.1792
2.67915	13.208
2.67087	15.9104
2.66264	16.4333
2.65446	16.4211
2.64633	16.3474
2.63825	16.3144
2.63021	16.333
2.62223	16.3022
2.6143	16.2578
2.60641	16.1494
2.59857	16.143
2.59078	16.0959
2.58304	16.0461
2.57534	16
2.56768	15.9013
2.56008	15.8791
2.55251	15.8784
2.54499	15.8745
2.53752	15.8713
2.53009	15.8332
2.5227	15.7749
2.51536	15.7065
2.50806	15.6486
2.5008	15.6279
2.49358	15.5441
2.4864	15.4768
2.47927	15.4331
2.47218	15.427
2.46512	15.3205
2.45811	15.3398
2.45114	15.3657
2.4442	15.3198
2.43731	15.353
2.43045	15.341
2.42363	15.249
2.41685	15.1933
2.41011	15.1474
2.40341	14.9697
2.39674	14.6308
2.39011	14.3518
2.38352	14.2583
2.37696	14.4922
2.37044	14.788
2.36395	15.0664
2.35751	15.1838
2.35109	15.2295
2.34471	15.1572
2.33836	15.0175
2.33205	14.6945
2.32578	14.2219
2.31953	13.8364
2.31332	13.8134
2.30714	13.9926
2.301	14.1621
2.29489	14.4238
2.28881	14.8291
2.28276	15.0732
2.27675	15.2983
2.27076	15.4887
2.26481	15.5918
2.25889	15.6171
2.253	15.6059
2.24714	15.6836
2.24131	15.7524
2.23551	15.8925
2.22974	15.9194
2.224	15.9892
2.21829	16.0214
2.21261	16.0044
2.20696	16.0166
2.20134	16.0371
2.19574	16.038
2.19018	16.1381
2.18464	16.1162
2.17913	16.1045
2.17365	16.1591
2.16819	16.1767
2.16277	16.2207
2.15737	16.2568
2.15199	16.1718
2.14665	16.2207
2.14133	16.2172
2.13603	16.2382
2.13077	16.2099
2.12552	16.2402
2.12031	16.2548
2.11512	16.2646
2.10995	16.2524
2.10481	16.2988
2.0997	16.3896
2.09461	16.4399
2.08954	16.5048
2.0845	16.5107
2.07948	16.5083
