Name: Clinoptilolite (Na,K,Ca)2-3Al3(Al,Si)2Si13O36.12H2O
Type: Mineral
Class: Silicates
Subclass: Tectosilicates (Framework silicates) (Zeolite Group)
Particle Size: Fine  (0-74 Micrometers)
Sample No.: clinopt.1
Owner: JHU
Wavelength Range: IR
Origin: Donated by W. J. Ehmann ;  Sample #7 from Castle Creek,
Description: The sample is a cream-colored earthy mass.  Because of
Measurement: Bidirectional reflectance
X Units: Wavelength (micrometers)
Y Units: Reflectance (percent)
wavelength	value
25.044	0.6855
24.339	0.6284
23.672	0.6228
23.041	0.7349
22.442	0.6904
21.874	0.7439
21.334	0.7786
20.82	0.8311
20.33	0.6775
19.863	0.5269
19.416	0.3967
18.99	0.4863
18.581	0.386
18.19	0.437
17.815	0.4534
17.455	0.4761
17.109	0.4675
16.777	0.4343
16.458	0.3921
16.15	0.3596
15.854	0.3777
15.568	0.46
15.292	0.5015
15.027	0.5063
14.77	0.4863
14.521	0.5659
14.281	0.6123
14.049	0.623
13.824	0.6262
13.607	0.6521
13.396	0.71
13.191	0.7908
12.993	0.8398
12.8	0.8804
12.614	0.8603
12.432	0.9546
12.256	1.4197
12.084	1.9871
11.918	2.3625
11.755	2.49
11.598	2.4597
11.444	2.3896
11.294	2.4597
11.149	2.5059
11.007	2.3935
10.868	2.187
10.733	2.011
10.602	1.7519
10.473	1.4333
10.348	1.1377
10.225	0.8618
10.106	0.6868
9.9887	0.6182
9.8746	0.6233
9.763	0.6211
9.6539	0.6445
9.5472	0.6531
9.4429	0.6785
9.3408	0.7104
9.2409	0.7754
9.1431	0.7939
9.0474	0.7827
8.9536	0.7246
8.8618	0.6746
8.7718	0.636
8.6837	0.6003
8.5973	0.5735
8.5126	0.5615
8.4295	0.5505
8.3481	0.5283
8.2682	0.5569
8.1898	0.6631
8.1129	0.8044
8.0374	0.7161
7.9634	0.4622
7.8906	0.2354
7.8192	0.1118
7.7491	0.1221
7.6802	0.207
7.6126	0.364
7.5461	0.5693
7.4807	0.7922
7.4165	1.0183
7.3534	1.2532
7.2914	1.4717
7.2303	1.6851
7.1703	1.8774
7.1113	2.0608
7.0533	2.2039
6.9962	2.3567
6.94	2.5151
6.8847	2.6604
6.8302	2.7922
6.7767	2.9485
6.7239	3.0925
6.672	3.2007
6.6209	3.2698
6.5705	3.2932
6.5209	3.3196
6.4721	3.3162
6.424	3.2395
6.3766	3.1316
6.3299	2.8818
6.2838	2.4512
6.2385	1.7859
6.1937	1.0876
6.1496	0.6726
6.1062	0.5725
6.0633	0.6135
6.0211	0.8372
5.9794	1.2517
5.9383	1.8762
5.8978	2.5923
5.8578	3.2939
5.8184	3.8076
5.7794	4.2053
5.741	4.438
5.7031	4.5862
5.6657	4.6738
5.6288	4.7119
5.5924	4.7312
5.5564	4.74
5.5209	4.7539
5.4859	4.8091
5.4513	4.9097
5.4171	5.0569
5.3833	5.2676
5.35	5.4507
5.3171	5.626
5.2846	5.7117
5.2524	5.7461
5.2207	5.7568
5.1893	5.7712
5.1584	5.8193
5.1277	5.9004
5.0975	6.0264
5.0676	6.1936
5.038	6.3872
5.0088	6.5813
4.98	6.76
4.9514	6.9009
4.9232	6.9939
4.8953	7.0581
4.8678	7.0867
4.8405	7.1252
4.8135	7.1645
4.7868	7.2182
4.7605	7.2688
4.7344	7.3271
4.7086	7.3789
4.6831	7.4289
4.6578	7.4643
4.6328	7.5093
4.6081	7.5471
4.5837	7.5906
4.5595	7.647
4.5356	7.7073
4.5119	7.7678
4.4884	7.8459
4.4652	7.938
4.4423	8.0266
4.4196	8.1269
4.3971	8.2229
4.3748	8.3132
4.3528	8.396
4.331	8.4804
4.3094	8.5583
4.288	8.6408
4.2668	8.7341
4.2458	8.8428
4.2251	8.9504
4.2045	9.0637
4.1841	9.1657
4.164	9.2812
4.144	9.3855
4.1242	9.4975
4.1046	9.6118
4.0852	9.7273
4.066	9.8371
4.047	9.9477
4.0281	10.052
4.0094	10.144
3.9909	10.218
3.9725	10.286
3.9544	10.345
3.9363	10.39
3.9185	10.434
3.9008	10.448
3.8833	10.47
3.8659	10.465
3.8487	10.458
3.8316	10.435
3.8147	10.398
3.7979	10.373
3.7813	10.333
3.7648	10.287
3.7485	10.237
3.7323	10.183
3.7162	10.109
3.7003	10.034
3.6845	9.9431
3.6689	9.8501
3.6534	9.7544
3.638	9.6462
3.6227	9.531
3.6076	9.4099
3.5926	9.2751
3.5777	9.1316
3.563	8.9775
3.5484	8.8088
3.5338	8.6147
3.5195	8.3674
3.5052	8.0747
3.491	7.9575
3.477	7.8103
3.463	7.6528
3.4492	7.4143
3.4355	7.1601
3.4219	6.8259
3.4084	6.6155
3.395	6.4941
3.3817	6.2671
3.3685	6.0544
3.3554	5.8638
3.3425	5.6474
3.3296	5.3962
3.3168	5.1648
3.3041	4.9126
3.2915	4.665
3.279	4.4272
3.2666	4.1797
3.2543	3.9382
3.2421	3.7075
3.23	3.4714
3.218	3.249
3.206	3.03
3.1942	2.8154
3.1824	2.614
3.1707	2.4265
3.1591	2.2449
3.1476	2.0657
3.1362	1.9109
3.1249	1.7695
3.1136	1.6243
3.1024	1.53
3.0913	1.4453
3.0803	1.4109
3.0694	1.3816
3.0585	1.3662
3.0477	1.3425
3.037	1.3225
3.0264	1.2776
3.0158	1.2202
3.0053	1.166
2.9949	1.1128
2.9845	1.0542
2.9743	1.012
2.9641	0.9666
2.9539	0.9365
2.9439	0.905
2.9339	0.8733
2.9239	0.8564
2.9141	0.8425
2.9043	0.8357
2.8946	0.8206
2.8849	0.8042
2.8753	0.8003
2.8658	0.7869
2.8563	0.783
2.8469	0.7788
2.8375	0.7534
2.8282	0.7227
2.819	0.7129
2.8098	0.6975
2.8007	0.6785
2.7917	0.6719
2.7827	0.6604
2.7738	0.6531
2.7649	0.6655
2.7561	0.6921
2.7473	0.8059
2.7386	1.0132
2.7299	1.3796
2.7213	1.9138
2.7128	2.731
2.7043	3.6858
2.6959	4.5322
2.6875	5.2346
2.6791	5.6897
2.6709	6.084
2.6626	6.7671
2.6545	7.0686
2.6463	7.3098
2.6382	7.5083
2.6302	7.6194
2.6222	7.79
2.6143	7.865
2.6064	7.9021
2.5986	7.9909
2.5908	8.0508
2.583	8.0517
2.5753	8.0862
2.5677	8.1177
2.5601	8.1186
2.5525	8.1755
2.545	8.2407
2.5375	8.2795
2.5301	8.3047
2.5227	8.3957
2.5154	8.4551
2.5081	8.5344
2.5008	8.6028
2.4936	8.6716
2.4864	8.7595
2.4793	8.8418
2.4722	8.9477
2.4651	9.0368
2.4581	9.1299
2.4511	9.2383
2.4442	9.3437
2.4373	9.5007
2.4305	9.6235
2.4236	9.7319
2.4169	9.8493
2.4101	9.9677
2.4034	10.059
2.3967	10.175
2.3901	10.271
2.3835	10.366
2.377	10.501
2.3704	10.609
2.364	10.734
2.3575	10.837
2.3511	10.996
2.3447	11.035
2.3384	11.142
2.3321	11.196
2.3258	11.283
2.3195	11.322
2.3133	11.366
2.3071	11.358
2.301	11.404
2.2949	11.421
2.2888	11.504
2.2828	11.575
2.2767	11.607
2.2708	11.669
2.2648	11.72
2.2589	11.769
2.253	11.766
2.2471	11.79
2.2413	11.792
2.2355	11.83
2.2297	11.838
2.224	11.83
2.2183	11.861
2.2126	11.841
2.207	11.85
2.2013	11.858
2.1957	11.883
2.1902	11.873
2.1846	11.844
2.1791	11.866
2.1736	11.909
2.1682	11.916
2.1628	11.949
2.1574	11.968
2.152	11.943
2.1466	11.89
2.1413	11.905
2.136	11.93
2.1308	11.918
2.1255	11.924
2.1203	11.884
2.1151	11.871
2.11	11.85
2.1048	11.848
2.0997	11.831
2.0946	11.838
2.0895	11.821
2.0845	11.814
2.0795	11.787
