Name: Marilia
Type: Stony Meteorites
Class: Ordinary Chondrite
Subclass: H4
Particle Size: 0-75 micrometers
Sample No.: Marilia
Owner: JHU
Origin: Meteorite seen to fall iin 1971.  Smithsonian sample No USNM 5843.
Description: None.
Measurement: Bidirectional reflectance
X Units: Wavelength (micrometers)
Y Units: Reflectance (percent)
wavelength	value
25.044	0.7817
24.339	0.6812
23.672	0.7112
23.041	0.5461
22.442	0.498
21.874	0.5654
21.334	0.4502
20.82	0.5596
20.33	0.6001
19.863	0.6384
19.416	0.6851
18.99	0.6172
18.581	0.5696
18.19	0.5776
17.815	0.5305
17.455	0.5627
17.109	0.5596
16.777	0.5325
16.458	0.5215
16.15	0.5283
15.854	0.4753
15.568	0.4375
15.292	0.4023
15.027	0.519
14.77	0.6157
14.521	0.6597
14.281	0.8179
14.049	0.8992
13.824	0.8142
13.607	0.9199
13.396	1.0496
13.191	1.2351
12.993	1.3142
12.8	1.373
12.614	1.3748
12.432	1.3997
12.256	1.2876
12.084	0.9836
11.918	0.7344
11.755	0.7026
11.598	0.6968
11.444	0.7737
11.294	0.7986
11.149	0.7598
11.007	0.7305
10.868	0.74
10.733	0.7876
10.602	0.7959
10.473	0.7332
10.348	0.6843
10.225	0.6514
10.106	0.625
9.9887	0.6067
9.8746	0.593
9.763	0.5728
9.6539	0.6077
9.5472	0.6887
9.4429	0.7043
9.3408	0.7148
9.2409	0.665
9.1431	0.6482
9.0474	0.6728
8.9536	0.6328
8.8618	0.6038
8.7718	0.5854
8.6837	0.5674
8.5973	0.5564
8.5126	0.6016
8.4295	0.6941
8.3481	0.8523
8.2682	1.0508
8.1898	1.2266
8.1129	1.3936
8.0374	1.5349
7.9634	1.675
7.8906	1.8061
7.8192	1.9216
7.7491	2.0398
7.6802	2.1304
7.6126	2.1968
7.5461	2.2768
7.4807	2.3503
7.4165	2.4145
7.3534	2.5002
7.2914	2.5593
7.2303	2.6045
7.1703	2.6562
7.1113	2.6799
7.0533	2.7085
6.9962	2.7419
6.94	2.7871
6.8847	2.8328
6.8302	2.925
6.7767	3.0134
6.7239	3.0735
6.672	3.0806
6.6209	3.0691
6.5705	3.0767
6.5209	3.0701
6.4721	3.0163
6.424	2.9509
6.3766	2.8809
6.3299	2.8052
6.2838	2.7888
6.2385	2.8252
6.1937	2.8752
6.1496	2.9617
6.1062	3.0193
6.0633	2.9993
6.0211	2.9888
5.9794	3.0539
5.9383	3.1892
5.8978	3.2668
5.8578	3.3093
5.8184	3.2871
5.7794	3.188
5.741	3.2192
5.7031	3.3035
5.6657	3.2654
5.6288	3.2685
5.5924	3.3855
5.5564	3.5046
5.5209	3.5508
5.4859	3.5469
5.4513	3.5649
5.4171	3.6128
5.3833	3.689
5.35	3.7456
5.3171	3.7629
5.2846	3.7488
5.2524	3.7371
5.2207	3.7129
5.1893	3.6968
5.1584	3.6992
5.1277	3.741
5.0975	3.7949
5.0676	3.8618
5.038	3.9018
5.0088	3.9267
4.98	3.939
4.9514	3.9595
4.9232	4.0056
4.8953	4.0625
4.8678	4.1052
4.8405	4.1467
4.8135	4.185
4.7868	4.2266
4.7605	4.2676
4.7344	4.2925
4.7086	4.3164
4.6831	4.3384
4.6578	4.3699
4.6328	4.4092
4.6081	4.4553
4.5837	4.4844
4.5595	4.5039
4.5356	4.5347
4.5119	4.5332
4.4884	4.5476
4.4652	4.5574
4.4423	4.5798
4.4196	4.5854
4.3971	4.6023
4.3748	4.5967
4.3528	4.612
4.331	4.6089
4.3094	4.6099
4.288	4.6128
4.2668	4.6184
4.2458	4.6267
4.2251	4.6299
4.2045	4.6304
4.1841	4.6289
4.164	4.6265
4.144	4.6316
4.1242	4.6345
4.1046	4.636
4.0852	4.6423
4.066	4.6465
4.047	4.6506
4.0281	4.6514
4.0094	4.6433
3.9909	4.6484
3.9725	4.6467
3.9544	4.6377
3.9363	4.6409
3.9185	4.6453
3.9008	4.646
3.8833	4.6489
3.8659	4.6345
3.8487	4.6328
3.8316	4.6306
3.8147	4.6164
3.7979	4.6018
3.7813	4.593
3.7648	4.5969
3.7485	4.5981
3.7323	4.5884
3.7162	4.5703
3.7003	4.552
3.6845	4.5422
3.6689	4.5356
3.6534	4.5229
3.638	4.5168
3.6227	4.511
3.6076	4.5005
3.5926	4.4795
3.5777	4.4607
3.563	4.4487
3.5484	4.4365
3.5338	4.4128
3.5195	4.3784
3.5052	4.3359
3.491	4.3379
3.477	4.333
3.463	4.3071
3.4492	4.2815
3.4355	4.2463
3.4219	4.2053
3.4084	4.1782
3.395	4.1777
3.3817	4.1682
3.3685	4.1741
3.3554	4.1743
3.3425	4.1653
3.3296	4.1648
3.3168	4.1687
3.3041	4.1609
3.2915	4.1577
3.279	4.1304
3.2666	4.1164
3.2543	4.1008
3.2421	4.0906
3.23	4.0708
3.218	4.0542
3.206	4.0388
3.1942	4.022
3.1824	4.0124
3.1707	3.9919
3.1591	3.9822
3.1476	3.9709
3.1362	3.9573
3.1249	3.9343
3.1136	3.918
3.1024	3.8987
3.0913	3.897
3.0803	3.9001
3.0694	3.8787
3.0585	3.8508
3.0477	3.845
3.037	3.8433
3.0264	3.832
3.0158	3.8252
3.0053	3.8181
2.9949	3.8042
2.9845	3.7934
2.9743	3.7876
2.9641	3.7822
2.9539	3.7681
2.9439	3.7808
2.9339	3.79
2.9239	3.7839
2.9141	3.7776
2.9043	3.8027
2.8946	3.8044
2.8849	3.8005
2.8753	3.8135
2.8658	3.8306
2.8563	3.8457
2.8469	3.8774
2.8375	3.8943
2.8282	3.906
2.819	3.9309
2.8098	3.9521
2.8007	3.9866
2.7917	4.0188
2.7827	4.0652
2.7738	4.1001
2.7649	4.1355
2.7561	4.1667
2.7473	4.2402
2.7386	4.2693
2.7299	4.2912
2.7213	4.3237
2.7128	4.3904
2.7043	4.4263
2.6959	4.4372
2.6875	4.4675
2.6791	4.477
2.6709	4.4819
2.6626	4.4929
2.6545	4.5032
2.6463	4.5105
2.6382	4.5276
2.6302	4.48
2.6222	4.4892
2.6143	4.4939
2.6064	4.491
2.5986	4.4949
2.5908	4.4885
2.583	4.5037
2.5753	4.5098
2.5677	4.4963
2.5601	4.4932
2.5525	4.4971
2.545	4.4888
2.5375	4.4932
2.5301	4.5007
2.5227	4.5061
2.5154	4.4744
2.5081	4.4675
2.5008	4.4519
2.4936	4.4529
2.4864	4.467
2.4793	4.4734
2.4722	4.4702
2.4651	4.4678
2.4581	4.4678
2.4511	4.4695
2.4442	4.4499
2.4373	4.4641
2.4305	4.4729
2.4236	4.4844
2.4169	4.4516
2.4101	4.4641
2.4034	4.4553
2.3967	4.4607
2.3901	4.4534
2.3835	4.4582
2.377	4.4455
2.3704	4.4534
2.364	4.4709
2.3575	4.4709
2.3511	4.4463
2.3447	4.4482
2.3384	4.4402
2.3321	4.4702
2.3258	4.4661
2.3195	4.4626
2.3133	4.4787
2.3071	4.4324
2.301	4.4748
2.2949	4.4614
2.2888	4.4546
2.2828	4.4592
2.2767	4.467
2.2708	4.4841
2.2648	4.4543
2.2589	4.4951
2.253	4.4944
2.2471	4.4863
2.2413	4.4839
2.2355	4.4792
2.2297	4.4897
2.224	4.4831
2.2183	4.4902
2.2126	4.5019
2.207	4.4883
2.2013	4.5039
2.1957	4.4993
2.1902	4.487
2.1846	4.501
2.1791	4.4675
2.1736	4.4875
2.1682	4.501
2.1628	4.521
2.1574	4.5041
2.152	4.5159
2.1466	4.5034
2.1413	4.5102
2.136	4.5132
2.1308	4.4787
2.1255	4.49
2.1203	4.4656
2.1151	4.4722
2.11	4.4809
2.1048	4.4709
2.0997	4.4985
2.0946	4.4538
2.0895	4.4707
2.0845	4.4802
2.0795	4.4883
