Name: Wollastonite CaSiO3
Type: Mineral
Class: Silicates
Subclass: Inosilicates (Chain Silicates); (Pyroxenoid Group)
Particle Size: Coarse  (75 - 250 Micrometers)
Sample No.: wollasto.1
Owner: JHU
Wavelength Range: IR
Origin: Santa Fe Mine, Pichucalco, Chiapas, Mexico via the
Description: The sample consisted of a 2 cm x 1 cm x 0.5 cm well-
Measurement: Bidirectional reflectance
X Units: Wavelength (micrometers)
Y Units: Reflectance (percent)
wavelength	value
25.0442	1.9917
24.3388	1.8528
23.6719	2.0371
23.0407	2.5591
22.4422	3.6333
21.8741	4.8135
21.334	3.855
20.8199	5.2014
20.33	5.0083
19.8627	3.3833
19.4163	4.2029
18.9896	4.6455
18.5812	4.7622
18.19	4.6584
17.815	4.3362
17.4551	3.491
17.1094	1.7429
16.7772	1.125
16.4576	1.2173
16.15	1.2707
15.8537	1.3882
15.568	1.8142
15.2925	1.4531
15.0265	1.053
14.7697	1.3391
14.5214	1.2156
14.2814	1.3293
14.0492	1.727
13.8244	1.9822
13.6067	2.1445
13.3957	2.2524
13.1912	2.3281
12.9929	2.3953
12.8004	2.3899
12.6135	2.2954
12.432	2.238
12.2557	2.1645
12.0843	2.1316
11.9176	2.1641
11.7555	2.2092
11.5977	2.1992
11.444	2.3486
11.2944	2.6443
11.1487	3.5527
11.0067	3.7905
10.8682	4.0745
10.7332	4.8391
10.6015	4.9512
10.473	5.7766
10.3476	6.7622
10.2251	5.946
10.1056	4.9917
9.98873	4.811
9.87458	4.5322
9.763	4.0766
9.65392	3.7617
9.54724	3.3555
9.44291	5.073
9.34082	7.4302
9.24091	7.487
9.14312	5.5239
9.04739	4.7627
8.95363	4.542
8.8618	4.2512
8.77183	3.99
8.68368	3.1287
8.59727	2.2219
8.51257	1.2346
8.42951	0.675
8.34807	0.5933
8.26819	0.7607
8.18981	0.9385
8.11292	1.1824
8.03745	1.3691
7.96337	1.4893
7.89064	1.5847
7.81924	1.7744
7.74911	1.9297
7.68023	2.019
7.61256	2.0542
7.54608	2.0964
7.48074	2.1975
7.41653	2.3813
7.35341	2.6523
7.29136	2.8992
7.23034	3.0776
7.17033	3.1977
7.11132	3.3022
7.05327	3.3813
6.99616	3.4541
6.93996	3.4233
6.88467	3.4387
6.83024	3.436
6.77667	3.3921
6.72393	3.1809
6.67201	3.0801
6.62089	3.3635
6.57054	3.6033
6.52095	3.553
6.4721	3.2104
6.42398	2.9236
6.37657	2.7112
6.32986	2.8533
6.28382	3.0854
6.23845	2.9707
6.19373	2.9094
6.14965	2.8606
6.10619	2.844
6.06334	3.0723
6.02109	3.4514
5.97942	3.7676
5.93832	3.7314
5.89778	3.4983
5.8578	3.2432
5.81835	2.9482
5.77943	3.0142
5.74103	3.2495
5.70314	3.6829
5.66574	4.1655
5.62883	4.2085
5.5924	4.2087
5.55644	4.1357
5.52093	4.4761
5.48588	4.9787
5.45127	5.2722
5.41709	5.3733
5.38334	5.0781
5.35	4.9787
5.31708	4.6194
5.28456	3.7256
5.25243	3.3599
5.2207	3.4011
5.18934	3.5535
5.15836	4.001
5.12775	4.3979
5.09749	4.6494
5.0676	4.7986
5.03805	4.8762
5.00884	4.9626
4.97998	5.0625
4.95144	4.9851
4.92322	4.8674
4.89533	5.1291
4.86775	5.2922
4.84048	5.4534
4.81351	5.7536
4.78684	6.0417
4.76047	6.216
4.73439	6.5312
4.70859	6.8384
4.68306	6.937
4.65782	7.1511
4.63284	7.5273
4.60814	7.8452
4.58369	7.9541
4.5595	8.074
4.53557	8.4407
4.51188	8.5835
4.48845	8.6462
4.46525	8.6904
4.44229	8.7251
4.41957	8.7532
4.39708	8.7759
4.37481	8.8288
4.35277	8.883
4.33096	8.9038
4.30935	8.9304
4.28797	8.9548
4.26679	8.9829
4.24583	9.0176
4.22506	9.0461
4.2045	9.0805
4.18414	9.0986
4.16398	9.0871
4.14401	9.1062
4.12423	9.1477
4.10464	9.2043
4.08523	9.2534
4.066	9.3047
4.04696	9.3325
4.02809	9.341
4.0094	9.3293
3.99088	9.2903
3.97253	9.2893
3.95435	9.3032
3.93634	9.3393
3.91848	9.3513
3.90079	9.3669
3.88326	9.3701
3.86589	9.3635
3.84867	9.353
3.8316	9.344
3.81468	9.3288
3.79791	9.3232
3.78129	9.342
3.76482	9.3484
3.74848	9.3386
3.73229	9.3196
3.71624	9.2871
3.70032	9.2597
3.68454	9.2324
3.6689	9.2075
3.65338	9.1797
3.638	9.1755
3.62275	9.1499
3.60762	9.113
3.59262	9.0849
3.57775	9.0708
3.56299	9.0454
3.54836	9.0217
3.53385	9.0144
3.51945	8.9968
3.50517	8.9638
3.49101	8.9641
3.47696	8.9538
3.46303	8.9592
3.4492	8.9516
3.43549	8.9289
3.42188	8.8965
3.40838	8.895
3.39499	8.917
3.38171	8.9079
3.36852	8.915
3.35544	8.9226
3.34246	8.9289
3.32958	8.9367
3.3168	8.9082
3.30411	8.8996
3.29153	8.8904
3.27903	8.8821
3.26664	8.8694
3.25433	8.8447
3.24212	8.8345
3.23	8.8108
3.21797	8.7942
3.20603	8.771
3.19418	8.729
3.18241	8.7004
3.17074	8.6721
3.15914	8.6289
3.14763	8.5678
3.13621	8.5168
3.12487	8.4653
3.11361	8.406
3.10243	8.3471
3.09133	8.2754
3.0803	8.2092
3.06936	8.1589
3.0585	8.143
3.04771	8.105
3.037	8.0871
3.02636	8.0588
3.0158	8.022
3.00531	7.979
2.99489	7.9429
2.98454	7.906
2.97427	7.8298
2.96407	7.771
2.95393	7.7392
2.94387	7.7195
2.93387	7.7302
2.92394	7.7358
2.91408	7.7529
2.90429	7.7854
2.89456	7.8406
2.88489	7.8747
2.87529	7.9067
2.86576	7.9385
2.85628	7.9822
2.84687	8.0539
2.83752	8.1313
2.82823	8.1721
2.81901	8.1948
2.80984	8.2258
2.80073	8.1987
2.79168	8.1289
2.78269	8.157
2.77376	8.3742
2.76488	8.4582
2.75606	8.5378
2.7473	8.7361
2.73859	8.9773
2.72994	9.4182
2.72134	9.6599
2.7128	9.8298
2.70431	9.9143
2.69587	10.0276
2.68748	10.1003
2.67915	10.1433
2.67087	10.1394
2.66264	10.3034
2.65446	10.3264
2.64633	10.3633
2.63825	10.3791
2.63021	10.3916
2.62223	10.4096
2.6143	10.4123
2.60641	10.3999
2.59857	10.4416
2.59078	10.4492
2.58304	10.4546
2.57534	10.4013
2.56768	10.4184
2.56008	10.4101
2.55251	10.4052
2.54499	10.4428
2.53752	10.4604
2.53009	10.4538
2.5227	10.4231
2.51536	10.4338
2.50806	10.4382
2.5008	10.4692
2.49358	10.4731
2.4864	10.4883
2.47927	10.489
2.47218	10.5293
2.46512	10.5093
2.45811	10.5366
2.45114	10.5122
2.4442	10.5176
2.43731	10.5551
2.43045	10.5273
2.42363	10.5586
2.41685	10.5493
2.41011	10.5727
2.40341	10.5622
2.39674	10.5637
2.39011	10.5737
2.38352	10.5791
2.37696	10.5542
2.37044	10.6115
2.36395	10.5757
2.35751	10.6206
2.35109	10.6399
2.34471	10.6198
2.33836	10.604
2.33205	10.6216
2.32578	10.5722
2.31953	10.6465
2.31332	10.6137
2.30714	10.6596
2.301	10.6506
2.29489	10.6621
2.28881	10.6933
2.28276	10.6875
2.27675	10.6816
2.27076	10.7065
2.26481	10.6894
2.25889	10.7104
2.253	10.686
2.24714	10.7343
2.24131	10.7094
2.23551	10.7217
2.22974	10.7392
2.224	10.7011
2.21829	10.7148
2.21261	10.719
2.20696	10.7539
2.20134	10.77
2.19574	10.7522
2.19018	10.7632
2.18464	10.7939
2.17913	10.7832
2.17365	10.802
2.16819	10.8166
2.16277	10.8423
2.15737	10.7893
2.15199	10.7834
2.14665	10.8247
2.14133	10.7988
2.13603	10.8225
2.13077	10.8049
2.12552	10.8066
2.12031	10.8169
2.11512	10.822
2.10995	10.8188
2.10481	10.7802
2.0997	10.8296
2.09461	10.8703
2.08954	10.852
2.0845	10.8589
2.07948	10.8869
