Name: Enstatite Mg2Si2O6
Type: Mineral
Class: Silicates
Subclass: Inosilicates (Chain Silicates) (Pyroxene Group)
Particle Size: Fine  (0-74 Micrometers)
Sample No.: enstatite.1
Owner: JHU
Wavelength Range: IR
Origin: Sample from Frank Smith Mine, near Barkly Wes, South
Description: Sample was a single light green piece, apparently part of
Measurement: Bidirectional reflectance
X Units: Wavelength (micrometers)
Y Units: Reflectance (percent)
wavelength	value
25.0442	2.5693
24.3388	2.2551
23.6719	2.4868
23.0407	2.5039
22.4422	2.6343
21.8741	2.6069
21.334	2.501
20.8199	2.6179
20.33	2.7405
19.8627	2.9026
19.4163	2.9905
18.9896	2.5808
18.5812	2.4568
18.19	2.4048
17.815	2.0012
17.4551	2.1804
17.1094	2.0508
16.7772	1.8166
16.4576	1.7551
16.15	1.5103
15.8537	1.324
15.568	1.2361
15.2925	1.1597
15.0265	1.2444
14.7697	1.4316
14.5214	1.5391
14.2814	1.6904
14.0492	1.9397
13.8244	1.7944
13.6067	2.1103
13.3957	2.2417
13.1912	2.7866
12.9929	3.2944
12.8004	3.7688
12.6135	3.605
12.432	3.5437
12.2557	3.3652
12.0843	2.9045
11.9176	2.3313
11.7555	2.1521
11.5977	2.1562
11.444	2.1697
11.2944	1.895
11.1487	1.8108
11.0067	1.7224
10.8682	1.7187
10.7332	1.7393
10.6015	1.7461
10.473	1.822
10.3476	1.7405
10.2251	1.7502
10.1056	1.595
9.98873	1.5437
9.87458	1.6457
9.763	1.561
9.65392	1.5764
9.54724	1.865
9.44291	1.9914
9.34082	2.1453
9.24091	2.2146
9.14312	2.2566
9.04739	2.3821
8.95363	2.5735
8.8618	2.7932
8.77183	3.1199
8.68368	3.4133
8.59727	2.8286
8.51257	1.634
8.42951	1.0107
8.34807	1.1143
8.26819	1.6025
8.18981	2.2439
8.11292	2.9541
8.03745	3.6335
7.96337	4.2314
7.89064	4.75
7.81924	5.2639
7.74911	5.6843
7.68023	6.0483
7.61256	6.3171
7.54608	6.6228
7.48074	6.8909
7.41653	7.073
7.35341	7.1875
7.29136	7.4072
7.23034	7.4651
7.17033	7.4592
7.11132	7.2656
7.05327	7.0847
6.99616	7.2004
6.93996	7.3703
6.88467	7.3469
6.83024	7.5339
6.77667	7.6975
6.72393	7.7546
6.67201	7.8545
6.62089	8.0151
6.57054	8.2668
6.52095	8.363
6.4721	8.3039
6.42398	8.1135
6.37657	7.7717
6.32986	7.4582
6.28382	7.3237
6.23845	7.2512
6.19373	7.1782
6.14965	7.3457
6.10619	7.6277
6.06334	7.8423
6.02109	8.0427
5.97942	8.4211
5.93832	9.0034
5.89778	9.5593
5.8578	9.7707
5.81835	9.8803
5.77943	10.0097
5.74103	10.1281
5.70314	10.2612
5.66574	10.4001
5.62883	10.5732
5.5924	10.7351
5.55644	10.9731
5.52093	11.1362
5.48588	11.0752
5.45127	11.0764
5.41709	11.2456
5.38334	11.499
5.35	11.6516
5.31708	11.6684
5.28456	11.5815
5.25243	11.4663
5.2207	11.3327
5.18934	11.0569
5.15836	10.7314
5.12775	10.6936
5.09749	10.8742
5.0676	11.1286
5.03805	11.3925
5.00884	11.6255
4.97998	11.8347
4.95144	11.947
4.92322	11.987
4.89533	12.0009
4.86775	11.9724
4.84048	11.958
4.81351	12.0879
4.78684	12.3515
4.76047	12.6687
4.73439	12.9507
4.70859	13.1726
4.68306	13.3452
4.65782	13.4751
4.63284	13.7285
4.60814	14.0661
4.58369	14.3652
4.5595	14.5896
4.53557	14.7949
4.51188	14.9655
4.48845	15.0568
4.46525	15.1125
4.44229	15.1364
4.41957	15.164
4.39708	15.184
4.37481	15.2002
4.35277	15.2119
4.33096	15.2175
4.30935	15.218
4.28797	15.2385
4.26679	15.2526
4.24583	15.2768
4.22506	15.2871
4.2045	15.2949
4.18414	15.3017
4.16398	15.3271
4.14401	15.3232
4.12423	15.3349
4.10464	15.3364
4.08523	15.3581
4.066	15.3518
4.04696	15.3545
4.02809	15.3447
4.0094	15.3171
3.99088	15.2846
3.97253	15.2668
3.95435	15.2595
3.93634	15.2756
3.91848	15.2683
3.90079	15.2534
3.88326	15.2295
3.86589	15.1955
3.84867	15.1504
3.8316	15.1071
3.81468	15.0703
3.79791	15.0227
3.78129	14.9631
3.76482	14.9118
3.74848	14.8462
3.73229	14.7951
3.71624	14.7353
3.70032	14.6472
3.68454	14.5861
3.6689	14.5131
3.65338	14.4533
3.638	14.3747
3.62275	14.3098
3.60762	14.2456
3.59262	14.1611
3.57775	14.0503
3.56299	13.9514
3.54836	13.8015
3.53385	13.6657
3.51945	13.4653
3.50517	13.1123
3.49101	12.9858
3.47696	12.7644
3.46303	12.6831
3.4492	12.5432
3.43549	12.4275
3.42188	12.226
3.40838	12.0371
3.39499	12.1772
3.38171	12.1679
3.36852	12.073
3.35544	11.8442
3.34246	12.1989
3.32958	12.4421
3.3168	12.4756
3.30411	12.4387
3.29153	12.3659
3.27903	12.2841
3.26664	12.1836
3.25433	12.0966
3.24212	11.9885
3.23	11.8921
3.21797	11.7971
3.20603	11.7046
3.19418	11.5942
3.18241	11.4729
3.17074	11.3481
3.15914	11.2331
3.14763	11.1101
3.13621	10.9831
3.12487	10.8684
3.11361	10.7766
3.10243	10.6843
3.09133	10.6059
3.0803	10.5239
3.06936	10.4646
3.0585	10.3947
3.04771	10.3139
3.037	10.261
3.02636	10.1882
3.0158	10.1093
3.00531	10.0051
2.99489	9.9375
2.98454	9.8733
2.97427	9.7715
2.96407	9.6784
2.95393	9.605
2.94387	9.5298
2.93387	9.4641
2.92394	9.4133
2.91408	9.384
2.90429	9.3667
2.89456	9.3054
2.88489	9.2397
2.87529	9.1653
2.86576	9.0598
2.85628	8.9372
2.84687	8.7844
2.83752	8.6152
2.82823	8.435
2.81901	8.229
2.80984	8.0271
2.80073	7.8647
2.79168	7.8113
2.78269	7.6125
2.77376	7.5888
2.76488	7.5122
2.75606	7.3139
2.7473	7.0505
2.73859	6.6828
2.72994	6.178
2.72134	5.5378
2.7128	4.6726
2.70431	4.9951
2.69587	7.1643
2.68748	10.3957
2.67915	13.2221
2.67087	14.976
2.66264	15.7204
2.65446	15.864
2.64633	15.9643
2.63825	16.0407
2.63021	16.0732
2.62223	16.0918
2.6143	16.0759
2.60641	16.0803
2.59857	16.0317
2.59078	16.0117
2.58304	16.0205
2.57534	15.9773
2.56768	15.9492
2.56008	15.8698
2.55251	15.8554
2.54499	15.8527
2.53752	15.7983
2.53009	15.7817
2.5227	15.7553
2.51536	15.6816
2.50806	15.6193
2.5008	15.5969
2.49358	15.634
2.4864	15.6618
2.47927	15.6467
2.47218	15.656
2.46512	15.6374
2.45811	15.6545
2.45114	15.6811
2.4442	15.5996
2.43731	15.5678
2.43045	15.5202
2.42363	15.5534
2.41685	15.5573
2.41011	15.5388
2.40341	15.5063
2.39674	15.4179
2.39011	15.3457
2.38352	15.3149
2.37696	15.3496
2.37044	15.3808
2.36395	15.4096
2.35751	15.4021
2.35109	15.3427
2.34471	15.2124
2.33836	15.0258
2.33205	14.8862
2.32578	14.7929
2.31953	14.7165
2.31332	14.7104
2.30714	14.8501
2.301	14.9575
2.29489	14.9672
2.28881	15.0288
2.28276	15.0659
2.27675	15.0771
2.27076	15.0869
2.26481	15.1601
2.25889	15.2046
2.253	15.2048
2.24714	15.1919
2.24131	15.187
2.23551	15.1833
2.22974	15.185
2.224	15.1858
2.21829	15.1875
2.21261	15.1652
2.20696	15.1389
2.20134	15.135
2.19574	15.1179
2.19018	15.0996
2.18464	15.0651
2.17913	15.0166
2.17365	14.9904
2.16819	15.019
2.16277	15.0102
2.15737	14.9472
2.15199	14.8547
2.14665	14.8339
2.14133	14.8117
2.13603	14.7717
2.13077	14.7353
2.12552	14.6701
2.12031	14.705
2.11512	14.6635
2.10995	14.6252
2.10481	14.5454
2.0997	14.5459
2.09461	14.5493
2.08954	14.5317
2.0845	14.4463
2.07948	14.4941
