Name: Olivenza
Type: Stony Meteorites
Class: Ordinary Chondrite
Subclass: LL6
Particle Size: 0-75 micrometers
Sample No.: Olivenza
Owner: JHU
Origin: Meteorite seen to fall in 1924.  Smithsonian sample No. USNM 5955.
Description: None.
Measurement: Bidirectional reflectance
X Units: Wavelength (micrometers)
Y Units: Reflectance (percent)
wavelength	value
25.044	1.0967
24.339	1.0139
23.672	0.8474
23.041	0.8181
22.442	0.6467
21.874	0.606
21.334	0.6343
20.82	0.7419
20.33	0.8542
19.863	0.9329
19.416	0.9763
18.99	0.9111
18.581	0.9175
18.19	0.8911
17.815	0.8154
17.455	0.7732
17.109	0.7324
16.777	0.6973
16.458	0.7297
16.15	0.7458
15.854	0.7053
15.568	0.6274
15.292	0.6328
15.027	0.7922
14.77	0.8784
14.521	1.0088
14.281	1.1565
14.049	1.1978
13.824	1.147
13.607	1.2173
13.396	1.3591
13.191	1.5078
12.993	1.5471
12.8	1.5601
12.614	1.5247
12.432	1.4744
12.256	1.3652
12.084	1.0867
11.918	0.8884
11.755	0.9221
11.598	1.0107
11.444	1.1936
11.294	1.2959
11.149	1.2715
11.007	1.2456
10.868	1.2722
10.733	1.2903
10.602	1.1899
10.473	1.0115
10.348	0.9626
10.225	0.9788
10.106	0.9319
9.9887	0.9221
9.8746	0.937
9.763	0.97
9.6539	1.02
9.5472	1.0417
9.4429	1.0193
9.3408	0.9414
9.2409	0.8735
9.1431	0.8608
9.0474	0.853
8.9536	0.8364
8.8618	0.835
8.7718	0.8376
8.6837	0.8601
8.5973	0.8984
8.5126	0.9917
8.4295	1.1377
8.3481	1.3603
8.2682	1.6694
8.1898	1.9504
8.1129	2.1731
8.0374	2.3706
7.9634	2.5415
7.8906	2.6797
7.8192	2.8198
7.7491	2.9446
7.6802	3.0437
7.6126	3.1194
7.5461	3.2256
7.4807	3.3577
7.4165	3.4775
7.3534	3.5745
7.2914	3.6338
7.2303	3.7197
7.1703	3.8225
7.1113	3.8769
7.0533	4.0188
6.9962	4.1174
6.94	4.1875
6.8847	4.2361
6.8302	4.3186
6.7767	4.4346
6.7239	4.4946
6.672	4.4966
6.6209	4.4624
6.5705	4.4458
6.5209	4.4219
6.4721	4.3606
6.424	4.2739
6.3766	4.1614
6.3299	4.0281
6.2838	3.9148
6.2385	3.8984
6.1937	3.9485
6.1496	4.0325
6.1062	4.0703
6.0633	3.9702
6.0211	3.918
5.9794	4.0161
5.9383	4.1348
5.8978	4.2517
5.8578	4.3398
5.8184	4.3982
5.7794	4.4228
5.741	4.3345
5.7031	4.1714
5.6657	4.0615
5.6288	4.1282
5.5924	4.3115
5.5564	4.4495
5.5209	4.4953
5.4859	4.5139
5.4513	4.5774
5.4171	4.6804
5.3833	4.7788
5.35	4.8413
5.3171	4.8638
5.2846	4.8608
5.2524	4.8816
5.2207	4.9265
5.1893	4.9661
5.1584	5.0239
5.1277	5.1055
5.0975	5.1731
5.0676	5.2246
5.038	5.279
5.0088	5.3096
4.98	5.3652
4.9514	5.477
4.9232	5.604
4.8953	5.7119
4.8678	5.7847
4.8405	5.8479
4.8135	5.9065
4.7868	5.9668
4.7605	6.0171
4.7344	6.051
4.7086	6.0879
4.6831	6.1308
4.6578	6.1799
4.6328	6.2368
4.6081	6.2905
4.5837	6.3315
4.5595	6.3662
4.5356	6.4018
4.5119	6.4292
4.4884	6.4602
4.4652	6.4914
4.4423	6.5205
4.4196	6.5517
4.3971	6.5732
4.3748	6.5974
4.3528	6.6199
4.331	6.6382
4.3094	6.6479
4.288	6.6709
4.2668	6.6897
4.2458	6.7073
4.2251	6.728
4.2045	6.7412
4.1841	6.7544
4.164	6.7632
4.144	6.7673
4.1242	6.7698
4.1046	6.7805
4.0852	6.7847
4.066	6.7903
4.047	6.7978
4.0281	6.8017
4.0094	6.8032
3.9909	6.8069
3.9725	6.81
3.9544	6.8169
3.9363	6.8222
3.9185	6.8327
3.9008	6.8364
3.8833	6.8406
3.8659	6.8418
3.8487	6.8464
3.8316	6.8462
3.8147	6.8459
3.7979	6.8425
3.7813	6.8491
3.7648	6.8437
3.7485	6.8418
3.7323	6.8374
3.7162	6.8318
3.7003	6.822
3.6845	6.8086
3.6689	6.7981
3.6534	6.792
3.638	6.7871
3.6227	6.7744
3.6076	6.7576
3.5926	6.7488
3.5777	6.7307
3.563	6.7112
3.5484	6.6899
3.5338	6.668
3.5195	6.6128
3.5052	6.5029
3.491	6.4985
3.477	6.5163
3.463	6.4997
3.4492	6.4592
3.4355	6.3916
3.4219	6.2807
3.4084	6.2661
3.395	6.3613
3.3817	6.3515
3.3685	6.3657
3.3554	6.4321
3.3425	6.447
3.3296	6.4358
3.3168	6.4294
3.3041	6.4143
3.2915	6.4014
3.279	6.383
3.2666	6.3635
3.2543	6.3386
3.2421	6.3264
3.23	6.3047
3.218	6.2803
3.206	6.2585
3.1942	6.2392
3.1824	6.2087
3.1707	6.1889
3.1591	6.164
3.1476	6.1382
3.1362	6.1133
3.1249	6.0903
3.1136	6.062
3.1024	6.0366
3.0913	6.0063
3.0803	5.9731
3.0694	5.948
3.0585	5.9221
3.0477	5.895
3.037	5.8677
3.0264	5.8506
3.0158	5.8476
3.0053	5.8435
2.9949	5.8401
2.9845	5.8381
2.9743	5.8208
2.9641	5.8056
2.9539	5.7939
2.9439	5.8056
2.9339	5.8288
2.9239	5.844
2.9141	5.8574
2.9043	5.8628
2.8946	5.8689
2.8849	5.8808
2.8753	5.8921
2.8658	5.9062
2.8563	5.9263
2.8469	5.9448
2.8375	5.966
2.8282	5.9895
2.819	6.0115
2.8098	6.041
2.8007	6.0718
2.7917	6.1015
2.7827	6.1399
2.7738	6.1753
2.7649	6.2251
2.7561	6.2639
2.7473	6.3113
2.7386	6.3496
2.7299	6.405
2.7213	6.4324
2.7128	6.457
2.7043	6.4939
2.6959	6.5332
2.6875	6.5527
2.6791	6.5622
2.6709	6.5613
2.6626	6.5688
2.6545	6.5674
2.6463	6.5586
2.6382	6.5488
2.6302	6.5393
2.6222	6.5466
2.6143	6.5393
2.6064	6.5161
2.5986	6.5112
2.5908	6.4985
2.583	6.489
2.5753	6.4761
2.5677	6.4714
2.5601	6.4665
2.5525	6.4668
2.545	6.4468
2.5375	6.4289
2.5301	6.4263
2.5227	6.4172
2.5154	6.4062
2.5081	6.3725
2.5008	6.3745
2.4936	6.3555
2.4864	6.3584
2.4793	6.3415
2.4722	6.3296
2.4651	6.3279
2.4581	6.3186
2.4511	6.3017
2.4442	6.2986
2.4373	6.2844
2.4305	6.2715
2.4236	6.2712
2.4169	6.2673
2.4101	6.25
2.4034	6.2329
2.3967	6.2307
2.3901	6.217
2.3835	6.2058
2.377	6.1907
2.3704	6.1924
2.364	6.1755
2.3575	6.1672
2.3511	6.1648
2.3447	6.1577
2.3384	6.1472
2.3321	6.1318
2.3258	6.1262
2.3195	6.116
2.3133	6.1125
2.3071	6.1221
2.301	6.1123
2.2949	6.1164
2.2888	6.1113
2.2828	6.1084
2.2767	6.1189
2.2708	6.1108
2.2648	6.1174
2.2589	6.0952
2.253	6.0959
2.2471	6.0798
2.2413	6.1023
2.2355	6.0908
2.2297	6.0915
2.224	6.0879
2.2183	6.0696
2.2126	6.0598
2.207	6.0867
2.2013	6.0801
2.1957	6.0625
2.1902	6.0559
2.1846	6.0571
2.1791	6.0747
2.1736	6.0493
2.1682	6.0383
2.1628	6.0317
2.1574	6.0439
2.152	6.022
2.1466	6.0337
2.1413	6.0317
2.136	6.0505
2.1308	6.0261
2.1255	6.0144
2.1203	6.0317
2.1151	6.0408
2.11	6.0342
2.1048	6.0178
2.0997	6.0132
2.0946	5.9941
2.0895	6.0095
2.0845	6.0141
2.0795	5.9907
