Name: Tremolite Ca2(Mg, Fe+2)5Si8O22(OH)2
Type: Mineral
Class: Silicates
Subclass: Inosilicates (Chain Silicates); (Amphibole Group)
Particle Size: Solid (sawn surface)
Sample No.: tremol.1
Owner: JHU
Wavelength Range: IR
Origin: Balmat, New York, USA via Bruce Hemingway, USGS
Description: The sample consisted of 2-3 cm long x 1-2 cm wide mass
Measurement: Bidirectional reflectance
X Units: Wavelength (micrometers)
Y Units: Reflectance (percent)
wavelength	value
25.0442	28.7343
24.3388	27.9413
23.6719	31.6757
23.0407	28.5937
22.4422	41.8251
21.8741	53.3182
21.334	50.9764
20.8199	40.2675
20.33	36.2387
19.8627	43.0331
19.4163	47.3837
18.9896	46.3861
18.5812	55.837
18.19	57.9679
17.815	44.7421
17.4551	41.1952
17.1094	33.6593
16.7772	23.746
16.4576	15.7602
16.15	15.4465
15.8537	17.5539
15.568	19.5644
15.2925	19.5712
15.0265	19.8012
14.7697	19.0366
14.5214	22.392
14.2814	20.1025
14.0492	18.2102
13.8244	19.3496
13.6067	19.7504
13.3957	20.1381
13.1912	22.4047
12.9929	24.102
12.8004	20.0131
12.6135	20.5285
12.432	21.0273
12.2557	21.4843
12.0843	21.9323
11.9176	22.4623
11.7555	23.0021
11.5977	23.4843
11.444	24.1476
11.2944	25.0087
11.1487	26.038
11.0067	27.6674
10.8682	31.9286
10.7332	26.5082
10.6015	27.8266
10.473	33.4237
10.3476	40.4838
10.2251	48.4696
10.1056	57.4061
9.98873	61.5831
9.87458	60.8272
9.763	50.2601
9.65392	42.9857
9.54724	45.9696
9.44291	52.3141
9.34082	56.3976
9.24091	56.4842
9.14312	53.8331
9.04739	50.8194
8.95363	49.6854
8.8618	47.9818
8.77183	46.5463
8.68368	43.8641
8.59727	37.7621
8.51257	28.3161
8.42951	22.8146
8.34807	16.8501
8.26819	11.1887
8.18981	7.8166
8.11292	8.2849
8.03745	9.4785
7.96337	10.4367
7.89064	11.1909
7.81924	11.8325
7.74911	12.3071
7.68023	12.7258
7.61256	13.1242
7.54608	13.4487
7.48074	13.6858
7.41653	13.9887
7.35341	14.1997
7.29136	14.4008
7.23034	14.6137
7.17033	14.6753
7.11132	14.8952
7.05327	14.9423
6.99616	15.1806
6.93996	15.3647
6.88467	15.479
6.83024	15.529
6.77667	15.5996
6.72393	15.6479
6.67201	15.8505
6.62089	15.9702
6.57054	15.9502
6.52095	16.1069
6.4721	16.2277
6.42398	16.2456
6.37657	16.3891
6.32986	16.5715
6.28382	16.6323
6.23845	16.6596
6.19373	16.6357
6.14965	16.719
6.10619	16.7104
6.06334	16.7812
6.02109	16.7548
5.97942	16.7981
5.93832	16.5092
5.89778	16.6198
5.8578	16.769
5.81835	16.7478
5.77943	16.8134
5.74103	16.8994
5.70314	16.9353
5.66574	16.9257
5.62883	16.9348
5.5924	16.9939
5.55644	16.9782
5.52093	17.0385
5.48588	17.0803
5.45127	17.1486
5.41709	17.1667
5.38334	17.2053
5.35	17.1318
5.31708	17.2399
5.28456	17.2683
5.25243	17.2963
5.2207	17.2963
5.18934	17.3444
5.15836	17.343
5.12775	17.3303
5.09749	17.3222
5.0676	17.3064
5.03805	17.2773
5.00884	17.2627
4.97998	17.248
4.95144	17.2397
4.92322	17.2329
4.89533	17.2146
4.86775	17.2111
4.84048	17.2075
4.81351	17.2202
4.78684	17.2202
4.76047	17.2148
4.73439	17.2275
4.70859	17.2343
4.68306	17.2485
4.65782	17.2612
4.63284	17.2981
4.60814	17.3071
4.58369	17.331
4.5595	17.3603
4.53557	17.3584
4.51188	17.3613
4.48845	17.3759
4.46525	17.4121
4.44229	17.414
4.41957	17.4372
4.39708	17.4375
4.37481	17.4218
4.35277	17.5024
4.33096	17.6311
4.30935	17.8418
4.28797	18.0918
4.26679	18.1313
4.24583	18.2426
4.22506	18.3447
4.2045	17.6379
4.18414	17.3271
4.16398	17.322
4.14401	17.3208
4.12423	17.3115
4.10464	17.3169
4.08523	17.3305
4.066	17.3017
4.04696	17.3181
4.02809	17.3212
4.0094	17.3208
3.99088	17.3403
3.97253	17.3447
3.95435	17.351
3.93634	17.3613
3.91848	17.3564
3.90079	17.3481
3.88326	17.3383
3.86589	17.3335
3.84867	17.3315
3.8316	17.3227
3.81468	17.3178
3.79791	17.3159
3.78129	17.3183
3.76482	17.2915
3.74848	17.2832
3.73229	17.2607
3.71624	17.2651
3.70032	17.248
3.68454	17.2348
3.6689	17.2373
3.65338	17.2124
3.638	17.2031
3.62275	17.2109
3.60762	17.1987
3.59262	17.1945
3.57775	17.1814
3.56299	17.1757
3.54836	17.1665
3.53385	17.1962
3.51945	17.2255
3.50517	17.2648
3.49101	17.1599
3.47696	17.1381
3.46303	17.1652
3.4492	17.1953
3.43549	17.2558
3.42188	17.2951
3.40838	17.1291
3.39499	17.0109
3.38171	17.0012
3.36852	16.9455
3.35544	16.8979
3.34246	16.8723
3.32958	16.8635
3.3168	16.8566
3.30411	16.8303
3.29153	16.8315
3.27903	16.8125
3.26664	16.8166
3.25433	16.7763
3.24212	16.76
3.23	16.7463
3.21797	16.716
3.20603	16.7006
3.19418	16.6809
3.18241	16.6565
3.17074	16.6135
3.15914	16.6093
3.14763	16.6259
3.13621	16.6135
3.12487	16.6147
3.11361	16.5744
3.10243	16.5463
3.09133	16.5346
3.0803	16.521
3.06936	16.5019
3.0585	16.4746
3.04771	16.477
3.037	16.4458
3.02636	16.4355
3.0158	16.4033
3.00531	16.4025
2.99489	16.3769
2.98454	16.3076
2.97427	16.3212
2.96407	16.2893
2.95393	16.2717
2.94387	16.2343
2.93387	16.2197
2.92394	16.1545
2.91408	16.1406
2.90429	16.1045
2.89456	16.0959
2.88489	16.05
2.87529	16.0354
2.86576	16.0295
2.85628	15.9658
2.84687	15.9492
2.83752	15.9287
2.82823	15.8586
2.81901	15.9028
2.80984	15.8774
2.80073	15.9824
2.79168	15.8466
2.78269	15.8154
2.77376	15.8017
2.76488	15.7783
2.75606	15.5649
2.7473	15.7954
2.73859	15.8642
2.72994	15.8852
2.72134	15.7949
2.7128	15.393
2.70431	15.582
2.69587	15.4511
2.68748	15.5317
2.67915	15.5039
2.67087	15.1611
2.66264	15.6425
2.65446	15.5732
2.64633	15.458
2.63825	15.5586
2.63021	15.3418
2.62223	15.5078
2.6143	15.6001
2.60641	15.4199
2.59857	15.4336
2.59078	15.498
2.58304	15.4209
2.57534	15.5415
2.56768	15.4419
2.56008	15.4472
2.55251	15.3379
2.54499	15.3945
2.53752	15.4199
2.53009	15.4087
2.5227	15.4062
2.51536	15.3662
2.50806	15.4023
2.5008	15.3711
2.49358	15.3989
2.4864	15.3481
2.47927	15.332
2.47218	15.352
2.46512	15.3339
2.45811	15.375
2.45114	15.3462
2.4442	15.3496
2.43731	15.3501
2.43045	15.3847
2.42363	15.354
2.41685	15.3671
2.41011	15.3598
2.40341	15.3481
2.39674	15.3222
2.39011	15.2876
2.38352	15.2758
2.37696	15.3169
2.37044	15.3188
2.36395	15.3164
2.35751	15.3115
2.35109	15.3564
2.34471	15.3652
2.33836	15.3212
2.33205	15.3046
2.32578	15.3183
2.31953	15.2949
2.31332	15.2285
2.30714	15.2666
2.301	15.2968
2.29489	15.2714
2.28881	15.3164
2.28276	15.3369
2.27675	15.3623
2.27076	15.3242
2.26481	15.3613
2.25889	15.3593
2.253	15.4121
2.24714	15.414
2.24131	15.3711
2.23551	15.3798
2.22974	15.4072
2.224	15.4384
2.21829	15.3457
2.21261	15.4531
2.20696	15.4306
2.20134	15.3457
2.19574	15.4023
2.19018	15.4453
2.18464	15.3837
2.17913	15.4179
2.17365	15.3613
2.16819	15.3994
2.16277	15.4619
2.15737	15.3056
2.15199	15.333
2.14665	15.4179
2.14133	15.3525
2.13603	15.4453
2.13077	15.3613
2.12552	15.4072
2.12031	15.3418
2.11512	15.3525
2.10995	15.3955
2.10481	15.3535
2.0997	15.33
2.09461	15.332
2.08954	15.4199
2.0845	15.3486
2.07948	15.3515
