Name: Rutile TiO2
Type: Mineral
Class: Oxides
Subclass: (Rutile Group)
Particle Size: Solid unknown crystal face)
Sample No.: rutile.1
Owner: JHU
Wavelength Range: IR
Origin: White Plains, Alexander County, North Carolina vie the
Description: The sample was composed of three small crystals with a
Measurement: Bidirectional reflectance
X Units: Wavelength (micrometers)
Y Units: Reflectance (percent)
wavelength	value
25.0442	34.6205
24.3388	35.0666
23.6719	33.8349
23.0407	31.0351
22.4422	26.4081
21.8741	26.6166
21.334	28.6528
20.8199	30.8271
20.33	32.9577
19.8627	35.3026
19.4163	36.38
18.9896	36.2526
18.5812	35.8053
18.19	35.258
17.815	34.8229
17.4551	34.4645
17.1094	33.9018
16.7772	33.6877
16.4576	33.7543
16.15	33.8693
15.8537	33.912
15.568	33.7958
15.2925	33.4281
15.0265	33.0871
14.7697	32.8041
14.5214	32.4118
14.2814	32.0617
14.0492	31.9179
13.8244	31.7978
13.6067	31.486
13.3957	30.9096
13.1912	29.9831
12.9929	28.5751
12.8004	26.728
12.6135	24.5903
12.432	22.3154
12.2557	20.2036
12.0843	17.9067
11.9176	15.1399
11.7555	11.9331
11.5977	8.4302
11.444	5.1877
11.2944	2.9956
11.1487	2.0469
11.0067	1.9849
10.8682	2.2771
10.7332	2.6531
10.6015	3.0378
10.473	3.3984
10.3476	3.7014
10.2251	4.0041
10.1056	4.2698
9.98873	4.5483
9.87458	4.7832
9.763	4.9936
9.65392	5.1958
9.54724	5.3933
9.44291	5.5525
9.34082	5.6868
9.24091	5.834
9.14312	5.9868
9.04739	6.1206
8.95363	6.2803
8.8618	6.3467
8.77183	6.3828
8.68368	6.478
8.59727	6.5722
8.51257	6.6636
8.42951	6.7366
8.34807	6.7959
8.26819	6.8679
8.18981	6.9233
8.11292	6.9687
8.03745	7.0161
7.96337	7.0488
7.89064	7.0908
7.81924	7.177
7.74911	7.2449
7.68023	7.3198
7.61256	7.355
7.54608	7.3965
7.48074	7.4162
7.41653	7.4668
7.35341	7.5005
7.29136	7.5288
7.23034	7.5693
7.17033	7.5937
7.11132	7.6545
7.05327	7.6753
6.99616	7.7243
6.93996	7.7568
6.88467	7.7837
6.83024	7.8301
6.77667	7.9057
6.72393	7.9314
6.67201	7.9587
6.62089	8.0063
6.57054	8.0093
6.52095	8.092
6.4721	8.1247
6.42398	8.1269
6.37657	8.2287
6.32986	8.3017
6.28382	8.3579
6.23845	8.4006
6.19373	8.4348
6.14965	8.4975
6.10619	8.5461
6.06334	8.6467
6.02109	8.7532
5.97942	8.8327
5.93832	8.8506
5.89778	8.9966
5.8578	9.1535
5.81835	9.1762
5.77943	9.4123
5.74103	9.6357
5.70314	9.8142
5.66574	9.9468
5.62883	10.0512
5.5924	10.1662
5.55644	10.261
5.52093	10.3357
5.48588	10.3982
5.45127	10.4572
5.41709	10.4848
5.38334	10.5649
5.35	10.6162
5.31708	10.7058
5.28456	10.7793
5.25243	10.8606
5.2207	10.9341
5.18934	11.0029
5.15836	11.0488
5.12775	11.0996
5.09749	11.1259
5.0676	11.1762
5.03805	11.2238
5.00884	11.2592
4.97998	11.2978
4.95144	11.3239
4.92322	11.3662
4.89533	11.4275
4.86775	11.4675
4.84048	11.499
4.81351	11.4658
4.78684	11.3923
4.76047	11.2221
4.73439	11.051
4.70859	11.0422
4.68306	11.1411
4.65782	11.2995
4.63284	11.4778
4.60814	11.5905
4.58369	11.644
4.5595	11.6733
4.53557	11.688
4.51188	11.688
4.48845	11.7199
4.46525	11.7404
4.44229	11.7509
4.41957	11.7539
4.39708	11.7661
4.37481	11.7627
4.35277	11.75
4.33096	11.7192
4.30935	11.6738
4.28797	11.6572
4.26679	11.6701
4.24583	11.7485
4.22506	11.7949
4.2045	11.8137
4.18414	11.8115
4.16398	11.8164
4.14401	11.8105
4.12423	11.822
4.10464	11.8132
4.08523	11.8298
4.066	11.823
4.04696	11.8171
4.02809	11.8012
4.0094	11.7878
3.99088	11.7622
3.97253	11.7409
3.95435	11.7287
3.93634	11.7143
3.91848	11.6994
3.90079	11.6941
3.88326	11.6689
3.86589	11.6355
3.84867	11.6152
3.8316	11.5967
3.81468	11.5769
3.79791	11.5512
3.78129	11.5166
3.76482	11.5
3.74848	11.4621
3.73229	11.4421
3.71624	11.4045
3.70032	11.3825
3.68454	11.334
3.6689	11.2976
3.65338	11.269
3.638	11.2334
3.62275	11.1921
3.60762	11.1692
3.59262	11.1125
3.57775	11.0461
3.56299	10.9863
3.54836	10.9258
3.53385	10.8147
3.51945	10.6452
3.50517	10.4157
3.49101	10.5197
3.47696	10.5332
3.46303	10.4751
3.4492	10.3501
3.43549	10.2236
3.42188	10.0744
3.40838	10.1797
3.39499	10.2436
3.38171	10.1977
3.36852	10.2976
3.35544	10.2917
3.34246	10.2278
3.32958	10.1294
3.3168	10.0178
3.30411	9.906
3.29153	9.7802
3.27903	9.6899
3.26664	9.5713
3.25433	9.4717
3.24212	9.4201
3.23	9.3794
3.21797	9.3335
3.20603	9.2927
3.19418	9.2446
3.18241	9.1955
3.17074	9.1133
3.15914	9.0161
3.14763	8.9155
3.13621	8.8132
3.12487	8.748
3.11361	8.5954
3.10243	8.3799
3.09133	8.1033
3.0803	7.8147
3.06936	7.5915
3.0585	7.3342
3.04771	7.1706
3.037	7.1975
3.02636	7.3235
3.0158	7.4746
3.00531	7.6379
2.99489	7.8667
2.98454	8.0642
2.97427	8.1235
2.96407	8.1408
2.95393	8.1958
2.94387	8.2434
2.93387	8.2829
2.92394	8.311
2.91408	8.395
2.90429	8.4905
2.89456	8.5732
2.88489	8.6272
2.87529	8.676
2.86576	8.7195
2.85628	8.7495
2.84687	8.7409
2.83752	8.7344
2.82823	8.7048
2.81901	8.6814
2.80984	8.6555
2.80073	8.5945
2.79168	8.5544
2.78269	8.4719
2.77376	8.4001
2.76488	8.2846
2.75606	8.1953
2.7473	8.2522
2.73859	8.1477
2.72994	8.1872
2.72134	8.1467
2.7128	8.1387
2.70431	8.0491
2.69587	8.1316
2.68748	8.3425
2.67915	8.4328
2.67087	8.4551
2.66264	8.5237
2.65446	8.5161
2.64633	8.4873
2.63825	8.4861
2.63021	8.4275
2.62223	8.4438
2.6143	8.4077
2.60641	8.3413
2.59857	8.3608
2.59078	8.3205
2.58304	8.2817
2.57534	8.2563
2.56768	8.228
2.56008	8.1741
2.55251	8.1343
2.54499	8.1167
2.53752	8.0312
2.53009	7.935
2.5227	7.8525
2.51536	7.7229
2.50806	7.646
2.5008	7.6208
2.49358	7.5766
2.4864	7.5141
2.47927	7.5093
2.47218	7.4658
2.46512	7.4319
2.45811	7.4446
2.45114	7.4507
2.4442	7.468
2.43731	7.529
2.43045	7.539
2.42363	7.53
2.41685	7.5571
2.41011	7.5371
2.40341	7.5337
2.39674	7.4873
2.39011	7.479
2.38352	7.4463
2.37696	7.4448
2.37044	7.4316
2.36395	7.4096
2.35751	7.3576
2.35109	7.3266
2.34471	7.3418
2.33836	7.2615
2.33205	7.2573
2.32578	7.2402
2.31953	7.1948
2.31332	7.0759
2.30714	6.9389
2.301	6.845
2.29489	6.8804
2.28881	7.0312
2.28276	7.0898
2.27675	7.145
2.27076	7.1892
2.26481	7.2095
2.25889	7.2138
2.253	7.2346
2.24714	7.2463
2.24131	7.2314
2.23551	7.2834
2.22974	7.2746
2.224	7.2817
2.21829	7.3056
2.21261	7.2991
2.20696	7.2825
2.20134	7.313
2.19574	7.3432
2.19018	7.3774
2.18464	7.3691
2.17913	7.3186
2.17365	7.3467
2.16819	7.3596
2.16277	7.4004
2.15737	7.3889
2.15199	7.3559
2.14665	7.4404
2.14133	7.4104
2.13603	7.4717
2.13077	7.4458
2.12552	7.4726
2.12031	7.4844
2.11512	7.5158
2.10995	7.4741
2.10481	7.4902
2.0997	7.5469
2.09461	7.5928
2.08954	7.5703
2.0845	7.581
2.07948	7.542
