Name: Aplite
Type: Rocks
Class: Igneous
Subclass: Felsic
Particle Size: Solid
Sample No.: Aplite.H1
Owner: JHU
Origin: From Boulder County, Colorado via Ward's Scientific (Cat. No. W-
Description: A fine-grained to medium-grained leucocratic rock composed
Measurement: Directional (10 degree) hemispherical reflectance
X Units: Wavelength (micrometers)
Y Units: Reflectance (percent)
wavelength	value
14.0112	4.0332
13.7147	5.9724
13.4304	4.125
13.1578	4.8267
12.8959	6.57
12.6443	5.1096
12.4023	5.2514
12.1694	3.3127
11.945	4.2806
11.7289	4.7681
11.5203	5.4161
11.3191	6.1155
11.1248	6.6691
10.937	7.422
10.7555	8.2043
10.5799	9.258
10.4099	10.6626
10.2454	12.9991
10.0859	16.3771
9.9313	19.9558
9.7814	20.6995
9.636	22.113
9.4948	22.9188
9.3577	25.3495
9.2245	27.854
9.095	26.3856
8.9691	25.661
8.8467	27.2981
8.7275	27.4764
8.6116	23.6264
8.4986	27.742
8.3886	26.6477
8.2814	23.4314
8.1769	18.1909
8.075	10.0284
7.9756	5.2218
7.8786	2.6717
7.784	1.78
7.6916	1.2535
7.6014	1.0699
7.5133	1.005
7.4272	1.0158
7.343	1.1006
7.2607	1.1341
7.1803	1.2171
7.1016	1.3399
7.0246	1.5436
6.9493	1.5853
6.8755	1.6566
6.8034	1.6758
6.7327	1.7067
6.6634	1.7595
6.5956	1.8089
6.5292	1.8372
6.464	1.8504
6.4002	1.8312
6.3376	1.819
6.2762	1.7414
6.216	1.7559
6.157	1.8052
6.099	1.8853
6.0421	1.9894
5.9863	1.9774
5.9315	2.013
5.8777	2.0322
5.8249	2.1457
5.773	2.1732
5.722	2.2083
5.6719	2.281
5.6227	2.2974
5.5744	2.2236
5.5268	2.4086
5.4801	2.5104
5.4341	2.5777
5.3889	2.6147
5.3445	2.6247
5.3008	2.7112
5.2578	2.7971
5.2154	2.9358
5.1738	3.0517
5.1328	3.1582
5.0925	3.2911
5.0528	3.3881
5.0137	3.5004
4.9752	3.6384
4.9373	3.7613
4.9	3.9527
4.8632	4.2572
4.827	4.4916
4.7913	4.6184
4.7561	4.74
4.7215	4.8616
4.6873	4.8415
4.6536	5.0508
4.6205	5.4159
4.5877	5.6604
4.5555	5.9104
4.5237	6.0361
4.4923	5.9958
4.4614	6.1917
4.4309	6.5948
4.4008	7.0717
4.3711	7.7267
4.3418	8.4068
4.3129	8.9093
4.2844	9.3148
4.2563	9.9841
4.2285	10.3495
4.2011	10.6989
4.174	11.226
4.1473	11.6568
4.1209	12.1356
4.0949	12.6651
4.0692	13.1402
4.0438	13.2026
4.0187	13.1027
3.994	12.9185
3.9695	13.0577
3.9453	13.8255
3.9214	14.3824
3.8979	14.6116
3.8746	14.654
3.8515	14.8169
3.8288	15.214
3.8063	15.8252
3.7841	16.0924
3.7621	16.0926
3.7404	16.1605
3.7189	16.5353
3.6977	17.1972
3.6767	17.8809
3.656	18.3937
3.6355	18.678
3.6152	18.782
3.5951	18.7945
3.5753	18.7506
3.5557	18.7893
3.5363	18.6487
3.5171	17.8132
3.4981	16.7896
3.4793	16.9171
3.4607	17.0156
3.4423	16.4789
3.4241	15.1404
3.4061	15.1626
3.3883	15.2651
3.3707	15.056
3.3533	15.1184
3.336	15.1436
3.3189	14.8399
3.302	14.3849
3.2853	13.9305
3.2687	13.495
3.2523	13.0195
3.2361	12.4502
3.22	11.8516
3.2041	11.3029
3.1883	10.7688
3.1727	10.1979
3.1572	9.8728
3.1419	9.4242
3.1268	9.1917
3.1117	8.9149
3.0969	8.7103
3.0821	8.5901
3.0675	8.5092
3.0531	8.5221
3.0388	8.5139
3.0246	8.6052
3.0105	8.6254
2.9966	8.6711
2.9828	8.6142
2.9692	8.5558
2.9556	8.5851
2.9422	8.6482
2.9289	8.7745
2.9157	8.9909
2.9027	9.2416
2.8897	9.4976
2.8769	9.7699
2.8642	10.0582
2.8516	10.3314
2.8391	10.6404
2.8267	10.8332
2.8144	11.0451
2.8022	11.2345
2.7902	11.34
2.7782	11.3158
2.7664	10.8966
2.7546	11.1963
2.7429	11.6678
2.7314	12.5034
2.7199	13.7605
2.7085	13.4948
2.6973	17.9636
2.6861	23.6828
2.675	26.6282
2.664	28.3924
2.6531	29.3155
2.6423	30.0831
2.6315	30.8033
2.6209	31.3459
2.6103	31.6401
2.5999	31.9478
2.5895	32.234
2.5792	32.3604
2.569	32.5952
2.5588	32.6671
2.5487	32.6605
2.5388	32.7529
2.5289	32.9264
2.519	33.0135
2.5093	33.2045
2.4996	33.4012
2.49	33.4307
2.4805	33.8095
2.471	34.0274
2.4616	34.1926
2.4523	34.3382
2.4431	34.6209
2.4339	34.9975
2.4248	35.3652
2.4157	35.6849
2.4068	35.9329
2.3979	36.1511
2.389	36.2917
2.3802	36.231
2.3715	36.5376
2.3629	36.515
2.3543	36.6911
2.3458	36.9196
2.3373	37.4141
2.3289	37.918
2.3206	38.5103
2.3123	39.111
2.3041	39.4251
2.2959	39.8612
2.2878	40.0783
2.2798	40.2885
2.2718	40.3176
2.2638	40.191
2.2559	40.0944
2.2481	40.0035
2.2403	40.2177
2.2326	40.2412
2.225	40.2458
2.2173	39.6564
2.2098	38.2776
2.2023	39.2484
2.1948	39.9259
2.1874	40.7511
2.18	41.3207
2.1727	41.5695
2.1655	41.7538
2.1583	41.9202
2.1511	42.2338
2.144	42.5934
2.1369	42.6777
2.1299	42.8526
2.1229	42.8685
2.116	42.9339
2.1091	42.9492
2.1023	43.1699
2.0955	43.0222
2.0887	43.1019
2.082	43.143
2.06	42.9969
2.028	42.6141
1.996	41.5232
1.964	41.1216
1.932	40.2763
1.9	39.8222
1.868	43.7925
1.836	44.4057
1.804	44.1327
1.772	44.3241
1.74	44.1764
1.708	44.1294
1.676	44.3307
1.644	44.3959
1.612	44.5615
1.58	44.6526
1.548	44.1368
1.516	44.1602
1.484	43.7323
1.452	43.5577
1.42	43.2816
1.388	42.6797
1.356	44.4516
1.324	44.596
1.292	44.8934
1.26	44.3787
1.228	44.6555
1.196	44.4915
1.164	44.9272
1.132	45.1213
1.1	45.3393
1.068	45.4448
1.036	45.8349
1.004	47.3952
0.972	47.583
0.94	48.2834
0.908	48.549
0.876	48.4015
0.844	48.5975
0.812	49.5392
0.795	49.5667
0.787	49.8864
0.779	49.3496
0.771	49.701
0.763	50.2901
0.755	50.2538
0.747	49.8009
0.739	50.1122
0.731	50.3076
0.723	49.9423
0.715	49.4559
0.707	50.2824
0.699	50.409
0.691	49.5229
0.683	49.9185
0.675	49.6126
0.667	49.6794
0.659	50.8761
0.651	49.8388
0.643	50.351
0.635	50.2093
0.627	50.4446
0.619	50.3615
0.611	50.9402
0.603	50.6836
0.595	50.4551
0.587	50.1663
0.579	50.4748
0.571	49.6641
0.563	49.5164
0.555	48.9861
0.547	48.7288
0.539	48.4049
0.531	48.1241
0.523	47.5772
0.515	47.4249
0.507	46.9008
0.499	46.6338
0.491	45.9608
0.483	45.4969
0.475	44.6885
0.467	44.0137
0.459	43.6123
0.451	42.9757
0.443	42.7324
0.435	41.5221
0.427	40.7307
0.419	39.5107
0.411	38.2147
0.403	37.5535
