Name: Calcite CaCO3
Type: Mineral
Class: Carbonates
Particle Size: Fine  (0-74 Micrometers)
Sample No.: calcite.2
Owner: JHU
Wavelength Range: IR
Origin: Hunt and Salisbury Collection #48B; Sample from Cherokee
Description: No solid sample is available for the specimen.
Measurement: Bidirectional reflectance
X Units: Wavelength (micrometers)
Y Units: Reflectance (percent)
wavelength	value
25.0442	1.7812
24.3388	1.3603
23.6719	0.876
23.0407	0.5635
22.4422	0.6709
21.8741	0.9797
21.334	1.2178
20.8199	1.4841
20.33	1.9536
19.8627	2.4394
19.4163	2.9351
18.9896	3.5644
18.5812	4.0737
18.19	4.6289
17.815	5.2539
17.4551	5.3711
17.1094	5.3096
16.7772	5.6543
16.4576	6.4531
16.15	7.072
15.8537	7.5449
15.568	8.2678
15.2925	8.821
15.0265	9.3811
14.7697	9.7163
14.5214	9.3669
14.2814	6.9956
14.0492	0.9963
13.8244	6.0845
13.6067	9.6125
13.3957	10.6521
13.1912	10.3135
12.9929	9.2568
12.8004	8.9321
12.6135	9.3283
12.432	9.644
12.2557	9.7163
12.0843	9.9443
11.9176	9.2466
11.7555	5.5547
11.5977	4.79
11.444	1.3686
11.2944	2.7959
11.1487	8.4531
11.0067	9.3713
10.8682	9.4992
10.7332	8.5439
10.6015	8.407
10.473	8.7182
10.3476	9.1262
10.2251	8.5046
10.1056	8.3391
9.98873	7.8598
9.87458	7.5046
9.763	7.7339
9.65392	8.5969
9.54724	8.8689
9.44291	8.9612
9.34082	8.4775
9.24091	7.6821
9.14312	8.7751
9.04739	8.7588
8.95363	8.5342
8.8618	8.01
8.77183	7.1863
8.68368	6.126
8.59727	4.905
8.51257	4.8279
8.42951	4.8889
8.34807	5.3845
8.26819	5.604
8.18981	5.635
8.11292	5.3408
8.03745	5.0913
7.96337	5.0605
7.89064	4.637
7.81924	4.4568
7.74911	4.1692
7.68023	3.6587
7.61256	3.0549
7.54608	2.8113
7.48074	2.5662
7.41653	2.2427
7.35341	1.8931
7.29136	1.4814
7.23034	1.2656
7.17033	1.1824
7.11132	1.2983
7.05327	1.3743
6.99616	1.3721
6.93996	1.366
6.88467	1.4434
6.83024	1.5039
6.77667	1.5935
6.72393	1.7393
6.67201	1.9263
6.62089	2.196
6.57054	2.6025
6.52095	3.1467
6.4721	3.9089
6.42398	4.4482
6.37657	4.3088
6.32986	3.5439
6.28382	3.0808
6.23845	2.9048
6.19373	2.4734
6.14965	2.3188
6.10619	2.4434
6.06334	2.7136
6.02109	3.2346
5.97942	3.6936
5.93832	4.0246
5.89778	4.4172
5.8578	4.5979
5.81835	4.4953
5.77943	4.4109
5.74103	4.478
5.70314	4.9265
5.66574	5.5381
5.62883	5.6765
5.5924	2.6948
5.55644	1.1721
5.52093	5.8503
5.48588	7.9634
5.45127	9.1975
5.41709	10.1806
5.38334	11.0185
5.35	11.6123
5.31708	12.2033
5.28456	12.6316
5.25243	12.9499
5.2207	13.1706
5.18934	13.4001
5.15836	13.5437
5.12775	13.6408
5.09749	12.2168
5.0676	13.9455
5.03805	13.9946
5.00884	13.9787
4.97998	13.9475
4.95144	13.9055
4.92322	13.916
4.89533	13.9348
4.86775	13.9743
4.84048	14.0332
4.81351	14.0507
4.78684	14.0302
4.76047	13.7822
4.73439	13.1692
4.70859	11.6264
4.68306	10.27
4.65782	10.2561
4.63284	11.6425
4.60814	12.5263
4.58369	12.7566
4.5595	12.8283
4.53557	12.8374
4.51188	12.8794
4.48845	13.082
4.46525	13.5005
4.44229	13.8149
4.41957	14.1074
4.39708	14.2048
4.37481	14.25
4.35277	13.9953
4.33096	13.8908
4.30935	13.8706
4.28797	13.969
4.26679	13.9394
4.24583	13.8342
4.22506	13.7055
4.2045	13.5805
4.18414	13.3752
4.16398	13.1047
4.14401	12.7404
4.12423	12.2133
4.10464	11.6269
4.08523	10.9392
4.066	9.9665
4.04696	8.4595
4.02809	6.0246
4.0094	4.0972
3.99088	2.4011
3.97253	2.1269
3.95435	2.7388
3.93634	4.373
3.91848	4.8301
3.90079	5.0781
3.88326	5.2209
3.86589	5.3369
3.84867	5.5388
3.8316	6.3381
3.81468	7.8745
3.79791	10.0573
3.78129	12.1147
3.76482	12.8254
3.74848	13.1296
3.73229	13.4485
3.71624	13.6386
3.70032	13.737
3.68454	13.7885
3.6689	13.7507
3.65338	13.6631
3.638	13.5214
3.62275	13.3559
3.60762	13.0988
3.59262	12.5879
3.57775	11.5947
3.56299	11.1374
3.54836	10.5039
3.53385	8.9719
3.51945	6.3794
3.50517	4.9758
3.49101	4.2053
3.47696	3.7097
3.46303	5.1409
3.4492	5.8667
3.43549	5.9888
3.42188	5.9883
3.40838	5.9265
3.39499	5.7854
3.38171	5.582
3.36852	5.4612
3.35544	4.8379
3.34246	5.8957
3.32958	9.4455
3.3168	10.8401
3.30411	11.5478
3.29153	12.0564
3.27903	12.4436
3.26664	12.7566
3.25433	12.9983
3.24212	13.1604
3.23	13.3452
3.21797	13.4873
3.20603	13.6172
3.19418	13.6872
3.18241	13.7031
3.17074	13.5949
3.15914	13.2353
3.14763	13.0888
3.13621	13.2605
3.12487	13.3286
3.11361	13.0556
3.10243	13.0803
3.09133	13.4155
3.0803	13.7595
3.06936	13.9301
3.0585	14.0539
3.04771	14.2028
3.037	14.3071
3.02636	14.4089
3.0158	14.4892
3.00531	14.5407
2.99489	14.6167
2.98454	14.6662
2.97427	14.6692
2.96407	14.6767
2.95393	14.6572
2.94387	14.6826
2.93387	14.7197
2.92394	14.7566
2.91408	14.8064
2.90429	14.8591
2.89456	14.9199
2.88489	14.9521
2.87529	14.9641
2.86576	14.9741
2.85628	15.0122
2.84687	14.9731
2.83752	14.9077
2.82823	14.7609
2.81901	14.5959
2.80984	14.3681
2.80073	13.977
2.79168	13.3818
2.78269	13.4038
2.77376	14.1245
2.76488	14.7255
2.75606	15.0122
2.7473	15.291
2.73859	15.3252
2.72994	15.5671
2.72134	15.6323
2.7128	15.8769
2.70431	16.1316
2.69587	16.291
2.68748	16.4965
2.67915	16.5678
2.67087	16.53
2.66264	16.7417
2.65446	16.7651
2.64633	16.8164
2.63825	16.831
2.63021	16.6816
2.62223	16.8164
2.6143	16.8032
2.60641	16.6814
2.59857	16.7236
2.59078	16.6035
2.58304	16.3845
2.57534	16.3354
2.56768	16.1047
2.56008	15.6425
2.55251	14.9734
2.54499	14.1972
2.53752	13.7119
2.53009	13.8733
2.5227	14.2834
2.51536	14.6308
2.50806	14.812
2.5008	14.9277
2.49358	15.0136
2.4864	15.1201
2.47927	15.3508
2.47218	15.6552
2.46512	15.9565
2.45811	16.2119
2.45114	16.4223
2.4442	16.5734
2.43731	16.6972
2.43045	16.8332
2.42363	16.9536
2.41685	17.0253
2.41011	17.0908
2.40341	17.0673
2.39674	17.0676
2.39011	17.0957
2.38352	17.0949
2.37696	17.0146
2.37044	16.8837
2.36395	16.6154
2.35751	16.2187
2.35109	15.811
2.34471	15.4868
2.33836	15.4199
2.33205	15.5366
2.32578	15.7346
2.31953	15.9599
2.31332	16.1106
2.30714	16.1699
2.301	16.2509
2.29489	16.3525
2.28881	16.4516
2.28276	16.5761
2.27675	16.7421
2.27076	16.8586
2.26481	17.0178
2.25889	17.1152
2.253	17.2021
2.24714	17.217
2.24131	17.3344
2.23551	17.382
2.22974	17.4355
2.224	17.4321
2.21829	17.5117
2.21261	17.5654
2.20696	17.5197
2.20134	17.6118
2.19574	17.623
2.19018	17.6416
2.18464	17.5952
2.17913	17.5815
2.17365	17.5595
2.16819	17.5302
2.16277	17.5512
2.15737	17.4941
2.15199	17.4814
2.14665	17.5019
2.14133	17.5717
2.13603	17.6352
2.13077	17.6342
2.12552	17.6269
2.12031	17.5957
2.11512	17.6147
2.10995	17.602
2.10481	17.6201
2.0997	17.6928
2.09461	17.6801
2.08954	17.7089
2.0845	17.6923
2.07948	17.5937
