Name: 60051.19
Type: Soil
Class: Lunar
Subclass: Highlands
Particle Size: Fine
Sample No.: 60051.19
Owner: JHU
Origin: Apollo 16 landing site via the NASA Lunar Sample Repository at Johnson
Description: This sample is one of a suite of relatively more aluminous and
Measurement: Directional (10 degree) hemispherical reflectance
X Units: Wavelength (micrometers)
Y Units: Reflectance (percent)
wavelength	value
14.011	0.7829
13.788	0.8426
13.571	0.9058
13.361	1.1062
13.158	1.0766
12.96	1.2181
12.769	1.5114
12.583	2.0121
12.402	2.4392
12.227	2.6282
12.056	2.5339
11.89	2.4495
11.729	2.3928
11.572	2.3878
11.419	2.3991
11.27	2.2753
11.125	2.3171
10.983	2.3516
10.846	2.4416
10.711	2.4093
10.58	2.3061
10.452	2.1557
10.327	1.9139
10.205	1.6624
10.086	1.5813
9.97	1.4927
9.856	1.4815
9.745	1.5192
9.636	1.4093
9.53	1.2683
9.426	1.133
9.324	1.1139
9.225	1.0915
9.127	1.2035
9.032	1.2388
8.938	1.1746
8.847	1.1483
8.757	1.2241
8.669	1.2058
8.583	1.1514
8.499	1.0125
8.416	0.7699
8.335	0.5953
8.255	0.4159
8.177	0.4045
8.1	0.5274
8.025	0.727
7.951	1.034
7.879	1.4487
7.808	1.8837
7.737	2.3918
7.669	2.9766
7.601	3.5027
7.535	4.021
7.47	4.5969
7.406	5.1533
7.343	5.6734
7.281	6.1939
7.22	6.6619
7.16	7.1556
7.102	7.541
7.044	7.9896
6.987	8.3161
6.931	8.6218
6.875	8.8659
6.821	9.042
6.768	9.3573
6.715	9.5949
6.663	9.688
6.612	9.8495
6.562	10.099
6.513	10.283
6.464	10.473
6.416	10.748
6.369	10.655
6.322	10.635
6.276	10.739
6.231	10.862
6.186	10.997
6.142	11.098
6.099	11.277
6.056	11.452
6.014	11.638
5.973	12.13
5.931	12.772
5.891	13.372
5.851	13.902
5.812	14.534
5.773	15.148
5.735	15.55
5.697	15.859
5.66	16.119
5.623	16.435
5.586	16.752
5.551	16.904
5.515	16.862
5.48	16.848
5.446	16.902
5.411	17.189
5.378	17.659
5.345	18.107
5.312	18.413
5.279	18.838
5.247	19.298
5.215	19.728
5.184	20.178
5.153	20.673
5.123	21.245
5.093	21.767
5.063	22.188
5.033	22.692
5.004	23.244
4.975	23.769
4.947	24.271
4.919	24.775
4.891	25.262
4.863	25.743
4.836	26.202
4.809	26.627
4.782	26.969
4.756	27.328
4.73	27.756
4.704	28.194
4.679	28.597
4.654	28.942
4.629	29.459
4.604	30.005
4.58	30.5
4.556	30.86
4.532	31.208
4.508	31.473
4.485	31.676
4.461	31.803
4.439	31.876
4.416	31.937
4.393	32.032
4.371	32.204
4.349	32.411
4.327	32.631
4.306	32.893
4.284	33.186
4.263	33.343
4.242	33.552
4.222	33.63
4.201	33.58
4.181	33.613
4.161	33.648
4.141	33.688
4.121	33.697
4.101	33.707
4.082	33.734
4.063	33.745
4.044	33.756
4.025	33.76
4.006	33.764
3.988	33.804
3.97	33.791
3.951	33.804
3.933	33.771
3.916	33.75
3.898	33.71
3.88	33.714
3.863	33.664
3.846	33.629
3.829	33.603
3.812	33.585
3.795	33.495
3.779	33.443
3.762	33.41
3.746	33.331
3.73	33.285
3.714	33.209
3.698	33.128
3.682	33.068
3.666	32.973
3.651	32.92
3.636	32.89
3.62	32.804
3.605	32.74
3.59	32.668
3.575	32.588
3.561	32.502
3.546	32.392
3.531	32.275
3.517	31.958
3.503	31.211
3.489	31.372
3.475	31.441
3.461	31.405
3.447	31.157
3.433	30.651
3.42	29.811
3.406	30.074
3.393	30.747
3.38	30.451
3.366	30.634
3.353	31.151
3.34	31.239
3.327	31.205
3.315	31.18
3.302	31.112
3.289	31.002
3.277	30.957
3.265	30.816
3.252	30.77
3.24	30.674
3.228	30.596
3.216	30.472
3.204	30.367
3.192	30.259
3.18	30.203
3.169	30.098
3.157	30.007
3.146	29.929
3.134	29.838
3.123	29.764
3.112	29.691
3.101	29.617
3.09	29.501
3.079	29.455
3.067	29.398
3.057	29.281
3.046	29.217
3.035	29.243
3.025	29.138
3.014	29.009
3.004	28.977
2.993	28.867
2.983	28.809
2.973	28.786
2.962	28.731
2.952	28.685
2.942	28.631
2.932	28.579
2.922	28.563
2.912	28.549
2.903	28.548
2.893	28.529
2.883	28.51
2.874	28.533
2.864	28.502
2.855	28.503
2.845	28.493
2.836	28.526
2.827	28.581
2.817	28.674
2.808	28.708
2.799	28.86
2.79	28.98
2.781	29.157
2.772	29.377
2.763	29.699
2.755	29.969
2.746	30.132
2.737	30.345
2.728	30.515
2.72	30.782
2.711	30.955
2.703	30.938
2.695	31.091
2.686	31.069
2.678	31.123
2.67	31.256
2.661	31.048
2.653	31.063
2.645	31.002
2.637	30.961
2.629	30.991
2.621	31.001
2.613	30.862
2.605	30.922
2.597	30.827
2.59	30.734
2.582	30.674
2.574	30.621
2.566	30.541
2.559	30.501
2.551	30.455
2.544	30.378
2.536	30.361
2.529	30.28
2.522	30.223
2.514	30.229
2.507	30.131
2.5	30.087
2.492	30.032
2.485	29.989
2.478	29.943
2.471	29.9
2.464	29.889
2.457	29.818
2.45	29.814
2.443	29.78
2.436	29.714
2.429	29.674
2.422	29.671
2.416	29.626
2.409	29.584
2.402	29.572
2.396	29.491
2.389	29.44
2.382	29.423
2.376	29.376
2.369	29.324
2.363	29.225
2.356	29.206
2.35	29.179
2.344	29.097
2.337	29.043
2.331	29.023
2.325	28.964
2.318	28.99
2.312	28.923
2.306	28.877
2.3	28.814
2.294	28.799
2.288	28.746
2.282	28.67
2.276	28.651
2.27	28.622
2.264	28.589
2.258	28.561
2.252	28.512
2.246	28.504
2.24	28.471
2.235	28.429
2.229	28.375
2.223	28.371
2.217	28.289
2.212	28.262
2.206	28.213
2.2	28.181
2.195	28.117
2.189	28.075
2.184	28.023
2.178	27.98
2.173	27.981
2.167	27.891
2.162	27.826
2.156	27.79
2.151	27.706
2.146	27.71
2.14	27.69
2.135	27.629
2.13	27.668
2.125	27.499
2.119	27.581
2.114	27.418
2.109	27.403
2.104	27.339
2.099	27.343
2.094	27.34
2.089	27.264
2.084	27.263
