Name: Montmorillonite (Na,Ca)0.33(Al,Mg)2Si4O10(OH)2.nH2O
Type: Mineral
Class: Silicates
Subclass: Phyllosilicates (Sheet Silicates); (SmectiteGroup)
Particle Size: Fine (Less than 2  micrometers)
Sample No.: montmor.1
Owner: JHU
Wavelength Range: IR
Origin: San Diego, California via Clay Mineral Society, Source Clay
Description: The sample was a tan, earthy clay. The bulk sample
Measurement: Transmission
X Units: Wavelength (micrometers)
Y Units: Transmittance (percent)
wavelength	value
25.0442	67.0545
24.3388	59.8377
23.6719	52.8475
23.0407	48.8553
22.4422	45.3954
21.8741	41.3602
21.334	38.6347
20.8199	47.3768
20.33	55.9764
19.8627	54.0917
19.4163	47.5726
18.9896	49.0555
18.5812	54.3514
18.19	57.8109
17.815	60.4979
17.4551	62.4222
17.1094	64.7054
16.7772	67.5086
16.4576	69.6111
16.15	70.0506
15.8537	72.5252
15.568	76.9124
15.2925	79.6971
15.0265	81.3694
14.7697	82.7254
14.5214	83.9666
14.2814	85.2029
14.0492	86.8128
13.8244	88.4881
13.6067	89.6775
13.3957	90.7283
13.1912	90.5847
12.9929	89.9717
12.8004	88.4024
12.6135	87.6504
12.432	87.449
12.2557	85.6013
12.0843	81.5996
11.9176	78.7225
11.7555	79.5645
11.5977	79.9856
11.444	78.2491
11.2944	75.7969
11.1487	72.3116
11.0067	67.2767
10.8682	66.4403
10.7332	66.7628
10.6015	63.7952
10.473	57.9269
10.3476	50.9999
10.2251	44.1898
10.1056	38.4545
9.98873	34.1896
9.87458	31.4101
9.763	30.1239
9.65392	30.9057
9.54724	33.7216
9.44291	37.6222
9.34082	41.058
9.24091	43.3058
9.14312	45.7013
9.04739	48.0638
8.95363	50.7855
8.8618	54.6019
8.77183	58.1859
8.68368	61.2196
8.59727	63.9305
8.51257	66.3121
8.42951	68.7796
8.34807	71.4046
8.26819	73.6531
8.18981	75.4524
8.11292	76.888
8.03745	78.1062
7.96337	79.4349
7.89064	80.5494
7.81924	81.2703
7.74911	82.084
7.68023	82.7537
7.61256	83.4339
7.54608	84.0496
7.48074	84.6004
7.41653	85.0896
7.35341	85.5086
7.29136	85.9566
7.23034	86.2468
7.17033	87.0423
7.11132	87.4256
7.05327	87.5252
6.99616	87.72
6.93996	88.2727
6.88467	88.5862
6.83024	88.6472
6.77667	88.8367
6.72393	89.1834
6.67201	89.532
6.62089	89.8372
6.57054	90.1887
6.52095	90.4539
6.4721	90.699
6.42398	90.97
6.37657	91.1008
6.32986	91.1321
6.28382	91.012
6.23845	90.5095
6.19373	88.7879
6.14965	86.3509
6.10619	85.5222
6.06334	86.7864
6.02109	88.7515
5.97942	90.324
5.93832	90.5615
5.89778	90.832
5.8578	91.197
5.81835	91.6167
5.77943	91.9924
5.74103	92.2556
5.70314	92.4363
5.66574	92.5545
5.62883	92.7371
5.5924	92.8098
5.55644	92.8113
5.52093	92.8259
5.48588	92.8836
5.45127	92.9392
5.41709	93.0647
5.38334	93.1755
5.35	93.3196
5.31708	93.4485
5.28456	93.574
5.25243	93.6682
5.2207	93.8386
5.18934	93.9163
5.15836	94.0418
5.12775	94.1619
5.09749	94.2415
5.0676	94.3091
5.03805	94.4204
5.00884	94.5078
4.97998	94.5984
4.95144	94.699
4.92322	94.7751
4.89533	94.8296
4.86775	94.8879
4.84048	94.9622
4.81351	95.0464
4.78684	95.0779
4.76047	95.1453
4.73439	95.1775
4.70859	95.196
4.68306	95.2327
4.65782	95.3174
4.63284	95.3477
4.60814	95.5317
4.58369	95.4272
4.5595	95.4402
4.53557	95.4805
4.51188	95.4734
4.48845	95.5227
4.46525	95.4939
4.44229	95.5432
4.41957	95.5784
4.39708	95.6497
4.37481	95.7397
4.35277	95.7722
4.33096	95.7561
4.30935	95.7754
4.28797	95.8398
4.26679	95.8801
4.24583	95.9709
4.22506	96.01
4.2045	95.9929
4.18414	96.0823
4.16398	96.1387
4.14401	96.1018
4.12423	96.1516
4.10464	96.21
4.08523	96.2312
4.066	96.2185
4.04696	96.2058
4.02809	96.2332
4.0094	96.2981
3.99088	96.2595
3.97253	96.1931
3.95435	96.3184
3.93634	96.335
3.91848	96.366
3.90079	96.3955
3.88326	96.345
3.86589	96.3191
3.84867	96.3154
3.8316	96.4338
3.81468	96.4456
3.79791	96.4482
3.78129	96.407
3.76482	96.3914
3.74848	96.4011
3.73229	96.4248
3.71624	96.4316
3.70032	96.3691
3.68454	96.3499
3.6689	96.3464
3.65338	96.3557
3.638	96.3459
3.62275	96.3279
3.60762	96.2849
3.59262	96.2385
3.57775	96.2393
3.56299	96.1711
3.54836	96.0769
3.53385	96.0986
3.51945	95.991
3.50517	95.9875
3.49101	95.8867
3.47696	95.8408
3.46303	95.8376
3.4492	95.7617
3.43549	95.6721
3.42188	95.6218
3.40838	95.3914
3.39499	95.3718
3.38171	95.4207
3.36852	95.4314
3.35544	95.3018
3.34246	95.1824
3.32958	95.0488
3.3168	94.9551
3.30411	94.8359
3.29153	94.7644
3.27903	94.6013
3.26664	94.4338
3.25433	94.1804
3.24212	94.0818
3.23	93.8533
3.21797	93.613
3.20603	93.3455
3.19418	92.9255
3.18241	92.5227
3.17074	92.0881
3.15914	91.6594
3.14763	91.1004
3.13621	90.4548
3.12487	89.8181
3.11361	89.1926
3.10243	88.4324
3.09133	87.7683
3.0803	87.5139
3.06936	87.1262
3.0585	86.6795
3.04771	86.1248
3.037	85.4729
3.02636	84.8631
3.0158	84.0174
3.00531	83.1795
2.99489	82.3836
2.98454	81.6038
2.97427	80.9119
2.96407	80.1267
2.95393	79.6609
2.94387	79.3465
2.93387	79.2019
2.92394	79.1546
2.91408	79.3025
2.90429	79.492
2.89456	79.7381
2.88489	80.0315
2.87529	80.0857
2.86576	80.1546
2.85628	80.6683
2.84687	80.9881
2.83752	81.5135
2.82823	81.9026
2.81901	82.2176
2.80984	82.0877
2.80073	81.6663
2.79168	80.4808
2.78269	79.1004
2.77376	77.6214
2.76488	76.6961
2.75606	76.8753
2.7473	79.031
2.73859	81.5965
2.72994	83.2791
2.72134	85.1492
2.7128	86.991
2.70431	89.0906
2.69587	90.5232
2.68748	91.5628
2.67915	92.0628
2.67087	92.3064
2.66264	92.492
2.65446	92.5881
2.64633	92.6443
2.63825	92.7488
2.63021	92.8572
2.62223	92.926
2.6143	93.0593
2.60641	93.032
2.59857	93.0867
2.59078	93.1521
2.58304	93.2185
2.57534	93.3337
2.56768	93.325
2.56008	93.3367
2.55251	93.3162
2.54499	93.2468
2.53752	93.3318
2.53009	93.3484
2.5227	93.1619
2.51536	93.2244
2.50806	93.4099
2.5008	93.3894
2.49358	93.2615
2.4864	93.45
2.47927	93.3992
2.47218	93.3171
2.46512	93.2664
2.45811	93.2507
2.45114	93.2439
2.4442	93.1375
2.43731	93.2419
2.43045	93.2351
2.42363	93.2341
2.41685	93.1306
2.41011	93.3377
2.40341	93.2869
2.39674	93.1736
2.39011	93.2029
2.38352	93.0945
2.37696	93.1091
2.37044	93.2976
2.36395	93.282
2.35751	93.156
2.35109	93.2
2.34471	93.2498
2.33836	93.2546
2.33205	93.0203
2.32578	92.8406
2.31953	93.2039
2.31332	93.1638
2.30714	92.9294
2.301	92.9294
2.29489	92.988
2.28881	92.9929
2.28276	92.9177
2.27675	93.0662
2.27076	93.0076
2.26481	92.7976
2.25889	92.6736
2.253	92.864
2.24714	92.699
2.24131	92.742
2.23551	93.2127
2.22974	92.8611
2.224	92.6384
2.21829	92.6912
2.21261	92.7595
2.20696	92.7244
2.20134	92.4861
2.19574	92.658
2.19018	92.6013
2.18464	92.6736
2.17913	92.6638
2.17365	92.6052
2.16819	92.7361
2.16277	92.8533
2.15737	92.5095
2.15199	92.5584
2.14665	92.4177
2.14133	92.0564
2.13603	92.6404
2.13077	92.6658
2.12552	92.6033
2.12031	92.3845
2.11512	92.5388
2.10995	92.5466
2.10481	92.4158
2.0997	92.6658
2.09461	92.5564
2.08954	92.5486
2.0845	92.5584
2.07948	92.4783
