Name: Dolomite CaMg(CO3)2
Type: Mineral
Class: Carbonates
Particle Size: Fine  (Less than 2  Micrometers)
Sample No.: dolomite.3
Owner: JHU
Wavelength Range: IR
Origin: Donated by Norma Vergo;  sample from Corydon, Indiana.
Description: The hand sample was massive, multicrystalline, and pink
Measurement: Transmission
X Units: Wavelength (micrometers)
Y Units: Transmittance (percent)
wavelength	value
25.044	32.5234
24.339	37.1288
23.672	49.953
23.041	65.742
22.442	76.2439
21.874	83.1482
21.334	87.3845
20.82	89.9783
20.33	90.9588
19.863	92.0388
19.416	93.9919
18.99	95.7234
18.581	96.197
18.19	96.8123
17.815	97.7517
17.455	98.6091
17.109	99.363
16.777	99.9236
16.458	100.766
16.15	101.193
15.854	101.329
15.568	101.171
15.292	100.976
15.027	100.428
14.77	99.8005
14.521	99.2517
14.281	98.3733
14.049	96.1624
13.824	83.49
13.607	88.2615
13.396	98.7327
13.191	99.2776
12.993	99.3288
12.8	99.0217
12.614	98.4709
12.432	97.7248
12.256	96.9832
12.084	96.2444
11.918	94.9822
11.755	89.4802
11.598	85.116
11.444	51.2889
11.294	32.3554
11.149	84.867
11.007	91.7966
10.868	93.8479
10.733	94.8796
10.602	95.6663
10.473	96.281
10.348	96.3479
10.225	95.9905
10.106	95.532
9.989	95.1218
9.875	94.6267
9.763	94.2039
9.654	93.6721
9.547	93.0086
9.443	91.7859
9.341	90.5764
9.241	89.6541
9.143	88.7581
9.047	88.5408
8.954	88.2991
8.862	87.9549
8.772	87.0676
8.684	86.1883
8.597	85.2537
8.513	84.0388
8.43	82.7976
8.348	81.9451
8.268	80.6592
8.19	78.6678
8.113	76.9346
8.037	75.1888
7.963	73.1356
7.891	70.8878
7.819	68.1361
7.749	65.0462
7.68	61.9356
7.613	58.4725
7.546	54.3429
7.481	49.7247
7.417	44.7013
7.353	38.7177
7.291	32.2499
7.23	25.5978
7.17	18.4953
7.111	11.6445
7.053	6.7854
6.996	2.8232
6.94	2.0068
6.885	2.335
6.83	3.2519
6.777	4.5151
6.724	6.2065
6.672	9.2158
6.621	14.936
6.571	22.457
6.521	30.5021
6.472	38.5243
6.424	46.2736
6.377	53.7152
6.33	59.7166
6.284	63.5824
6.238	66.4981
6.194	69.6436
6.15	73.1873
6.106	75.5496
6.063	77.7249
6.021	79.6136
5.979	81.2176
5.938	82.5008
5.898	84.0459
5.858	85.5584
5.818	86.6072
5.779	87.8154
5.741	88.7039
5.703	89.5769
5.666	90.3152
5.629	90.8701
5.592	91.1541
5.556	90.5798
5.521	87.7923
5.486	87.3506
5.451	91.5628
5.417	93.7197
5.383	94.8513
5.35	95.5312
5.317	96.198
5.285	96.7119
5.252	97.2607
5.221	97.699
5.189	98.1296
5.158	98.5124
5.128	98.8652
5.097	99.1514
5.068	99.3535
5.038	99.7029
5.009	99.9558
4.98	100.214
4.951	100.407
4.923	100.635
4.895	100.814
4.868	100.974
4.84	101.165
4.814	101.323
4.787	101.479
4.76	101.621
4.734	101.742
4.709	101.856
4.683	101.868
4.658	101.818
4.633	101.88
4.608	101.975
4.584	102.142
4.56	102.32
4.536	102.39
4.512	102.528
4.488	102.612
4.465	102.653
4.442	102.68
4.42	102.733
4.397	102.86
4.375	102.923
4.353	102.987
4.331	102.979
4.309	103.037
4.288	103.111
4.267	103.114
4.246	103.201
4.225	103.205
4.205	103.187
4.184	103.208
4.164	103.186
4.144	103.198
4.124	103.188
4.105	103.16
4.085	103.1
4.066	102.981
4.047	102.805
4.028	102.457
4.009	101.693
3.991	100.057
3.973	96.1648
3.954	95.2507
3.936	95.9749
3.918	97.01
3.901	99.2287
3.883	99.8772
3.866	100.512
3.849	101.782
3.832	101.76
3.815	100.86
3.798	100.928
3.781	101.939
3.765	102.629
3.748	103.127
3.732	103.322
3.716	103.371
3.7	103.401
3.685	103.424
3.669	103.394
3.653	103.379
3.638	103.346
3.623	103.32
3.608	103.333
3.593	103.26
3.578	103.222
3.563	103.138
3.548	102.975
3.534	102.906
3.519	102.624
3.505	101.958
3.491	100.864
3.477	99.9158
3.463	99.2712
3.449	99.0994
3.435	100.309
3.422	101.035
3.408	101.188
3.395	101.422
3.382	101.654
3.369	101.6
3.355	101.172
3.342	100.992
3.33	100.975
3.317	100.65
3.304	101.024
3.292	102.672
3.279	102.961
3.267	103.014
3.254	103.021
3.242	103.045
3.23	103.096
3.218	103.092
3.206	103.136
3.194	103.115
3.182	103.101
3.171	103.112
3.159	103.1
3.148	103.145
3.136	103.166
3.125	103.16
3.114	103.276
3.102	103.257
3.091	103.318
3.08	103.358
3.069	103.458
3.058	103.457
3.048	103.472
3.037	103.497
3.026	103.552
3.016	103.641
3.005	103.79
2.995	104.028
2.985	104.383
2.974	104.718
2.964	105.121
2.954	105.57
2.944	105.867
2.934	106.188
2.924	106.391
2.914	106.536
2.904	106.404
2.895	106.341
2.885	106.257
2.875	106.076
2.866	105.793
2.856	105.852
2.847	105.732
2.838	105.481
2.828	105.192
2.819	104.915
2.81	104.757
2.801	104.455
2.792	104.317
2.783	104.106
2.774	103.833
2.765	103.512
2.756	103.185
2.747	103.216
2.739	102.8
2.73	102.774
2.721	102.532
2.713	102.617
2.704	102.187
2.696	101.836
2.687	101.739
2.679	101.582
2.671	101.293
2.663	101.419
2.654	101.344
2.646	101.227
2.638	101.286
2.63	100.805
2.622	100.997
2.614	100.88
2.606	100.683
2.599	100.883
2.591	100.673
2.583	100.489
2.575	100.399
2.568	100.512
2.56	100.347
2.553	100.386
2.545	100.231
2.538	100.226
2.53	100.179
2.523	100.119
2.515	99.9607
2.508	100.002
2.501	99.9333
2.494	99.8318
2.486	99.863
2.479	99.6892
2.472	99.6404
2.465	99.6033
2.458	99.7322
2.451	99.7576
2.444	99.5154
2.437	99.6111
2.43	99.4783
2.424	99.4568
2.417	99.4158
2.41	99.199
2.403	99.2829
2.397	99.3201
2.39	99.1579
2.384	99.281
2.377	99.2107
2.37	99.2595
2.364	99.281
2.358	99.0622
2.351	99.2146
2.345	99.1033
2.338	98.947
2.332	99.0505
2.326	98.9939
2.32	98.9294
2.313	98.9568
2.307	99.1169
2.301	99.0173
2.295	99.0642
2.289	99.0564
2.283	98.9607
2.277	99.0095
2.271	99.0701
2.265	99.1443
2.259	99.0329
2.253	99.1326
2.247	99.0486
2.241	99.1951
2.236	99.0564
2.23	99.2439
2.224	99.3747
2.218	99.2751
2.213	99.2966
2.207	99.2595
2.201	99.3122
2.196	99.3279
2.19	99.3474
2.185	99.3904
2.179	99.4138
2.174	99.5076
2.168	99.5232
2.163	99.4548
2.157	99.5622
2.152	99.4333
2.147	99.6404
2.141	99.5857
2.136	99.5466
2.131	99.9138
2.126	99.4997
2.12	99.5701
2.115	99.7185
2.11	99.7771
2.105	99.6013
2.1	99.7654
2.095	99.7966
2.09	99.8982
2.085	99.7537
2.079	99.863
