Name: Chromite Fe+2Cr2O4
Type: Mineral
Class: Oxides (Spinel Group)
Particle Size: Coarse  (74-250 Micrometers)
Sample No.: chromite.1
Owner: JHU
Wavelength Range: IR
Origin: Smithsonian NMNH 117075; Sample from Tiebaghi Mine, New
Description: The sample was one large (3.5 cm x 2 cm x 2 cm) piece
Measurement: Bidirectional reflectance
X Units: Wavelength (micrometers)
Y Units: Reflectance (percent)
wavelength	value
25.0442	6.7988
24.3388	7.2375
23.6719	7.8296
23.0407	8.2153
22.4422	8.3471
21.8741	8.437
21.334	9.9209
20.8199	13.3315
20.33	16.2895
19.8627	16.5361
19.4163	15.6801
18.9896	15.7675
18.5812	14.5764
18.19	12.1745
17.815	7.7554
17.4551	2.7917
17.1094	2.8491
16.7772	3.8599
16.4576	5.0415
16.15	7.1789
15.8537	11.9878
15.568	13.3225
15.2925	13.5129
15.0265	13.8005
14.7697	13.6833
14.5214	13.1877
14.2814	12.5534
14.0492	11.7903
13.8244	10.9729
13.6067	10.0544
13.3957	8.7668
13.1912	6.3799
12.9929	3.6675
12.8004	1.1973
12.6135	0.439
12.432	0.6206
12.2557	0.877
12.0843	1.0154
11.9176	1.135
11.7555	1.2612
11.5977	1.3472
11.444	1.4399
11.2944	1.5505
11.1487	1.6233
11.0067	1.7419
10.8682	1.9292
10.7332	2.1189
10.6015	2.145
10.473	2.1606
10.3476	2.2244
10.2251	2.2888
10.1056	2.3464
9.98873	2.3577
9.87458	2.385
9.763	2.3894
9.65392	2.3689
9.54724	2.333
9.44291	2.3142
9.34082	2.3225
9.24091	2.4084
9.14312	2.5366
9.04739	2.6672
8.95363	2.8418
8.8618	2.9277
8.77183	2.956
8.68368	2.9214
8.59727	2.9309
8.51257	3.0193
8.42951	3.2712
8.34807	3.6211
8.26819	3.9726
8.18981	4.1882
8.11292	4.2786
8.03745	4.1518
7.96337	3.9275
7.89064	3.9382
7.81924	4.0522
7.74911	4.1902
7.68023	4.3708
7.61256	4.6416
7.54608	4.9502
7.48074	5.2414
7.41653	5.4905
7.35341	5.697
7.29136	5.9145
7.23034	6.0998
7.17033	6.2771
7.11132	6.4612
7.05327	6.6413
6.99616	6.7876
6.93996	6.9358
6.88467	7.042
6.83024	7.164
6.77667	7.2749
6.72393	7.4177
6.67201	7.54
6.62089	7.6972
6.57054	7.8086
6.52095	7.9543
6.4721	8.0752
6.42398	8.1806
6.37657	8.3193
6.32986	8.4284
6.28382	8.48
6.23845	8.518
6.19373	8.5493
6.14965	8.5862
6.10619	8.666
6.06334	8.8113
6.02109	8.9841
5.97942	9.1367
5.93832	9.3166
5.89778	9.5039
5.8578	9.6401
5.81835	9.7451
5.77943	9.8537
5.74103	9.8984
5.70314	9.9551
5.66574	10.0107
5.62883	10.0652
5.5924	10.1167
5.55644	10.1372
5.52093	10.1906
5.48588	10.2322
5.45127	10.31
5.41709	10.3659
5.38334	10.4057
5.35	10.4519
5.31708	10.5317
5.28456	10.5639
5.25243	10.5649
5.2207	10.5332
5.18934	10.5569
5.15836	10.5495
5.12775	10.528
5.09749	10.5259
5.0676	10.5273
5.03805	10.4887
5.00884	10.4524
4.97998	10.3747
4.95144	10.301
4.92322	10.2241
4.89533	10.1755
4.86775	10.0835
4.84048	9.9773
4.81351	9.8515
4.78684	9.7519
4.76047	9.6494
4.73439	9.5122
4.70859	9.3591
4.68306	9.2021
4.65782	9.0368
4.63284	8.8813
4.60814	8.7146
4.58369	8.5488
4.5595	8.3449
4.53557	8.1584
4.51188	7.9607
4.48845	7.7702
4.46525	7.5664
4.44229	7.3506
4.41957	7.1719
4.39708	6.9726
4.37481	6.7698
4.35277	6.5686
4.33096	6.3572
4.30935	6.1516
4.28797	5.9646
4.26679	5.7798
4.24583	5.5852
4.22506	5.4057
4.2045	5.2209
4.18414	5.0542
4.16398	4.8867
4.14401	4.7239
4.12423	4.5701
4.10464	4.3999
4.08523	4.2656
4.066	4.1348
4.04696	3.9853
4.02809	3.8669
4.0094	3.7468
3.99088	3.6372
3.97253	3.5334
3.95435	3.4206
3.93634	3.3418
3.91848	3.2414
3.90079	3.1587
3.88326	3.0771
3.86589	3.0017
3.84867	2.9485
3.8316	2.8787
3.81468	2.8315
3.79791	2.7737
3.78129	2.7168
3.76482	2.678
3.74848	2.6304
3.73229	2.5937
3.71624	2.5366
3.70032	2.5232
3.68454	2.4919
3.6689	2.4617
3.65338	2.4451
3.638	2.4233
3.62275	2.3918
3.60762	2.3826
3.59262	2.3564
3.57775	2.3447
3.56299	2.3093
3.54836	2.3054
3.53385	2.2754
3.51945	2.2695
3.50517	2.2673
3.49101	2.2581
3.47696	2.2544
3.46303	2.2441
3.4492	2.2322
3.43549	2.2227
3.42188	2.22
3.40838	2.2065
3.39499	2.2039
3.38171	2.2017
3.36852	2.2009
3.35544	2.1829
3.34246	2.1877
3.32958	2.1623
3.3168	2.1655
3.30411	2.1499
3.29153	2.155
3.27903	2.1506
3.26664	2.1545
3.25433	2.1409
3.24212	2.144
3.23	2.1206
3.21797	2.1291
3.20603	2.1257
3.19418	2.1191
3.18241	2.1172
3.17074	2.1145
3.15914	2.106
3.14763	2.1084
3.13621	2.1016
3.12487	2.1035
3.11361	2.104
3.10243	2.0613
3.09133	2.0937
3.0803	2.0647
3.06936	2.0718
3.0585	2.082
3.04771	2.0769
3.037	2.0652
3.02636	2.0564
3.0158	2.0522
3.00531	2.0625
2.99489	2.0535
2.98454	2.0361
2.97427	2.041
2.96407	2.0166
2.95393	2.0391
2.94387	2.033
2.93387	2.0173
2.92394	2.0068
2.91408	1.9958
2.90429	2.0015
2.89456	2.0146
2.88489	2.0034
2.87529	1.9897
2.86576	1.9946
2.85628	1.9978
2.84687	1.978
2.83752	1.9941
2.82823	1.9568
2.81901	1.9592
2.80984	1.9539
2.80073	1.9641
2.79168	1.9421
2.78269	1.9287
2.77376	1.917
2.76488	1.9309
2.75606	1.9102
2.7473	1.9136
2.73859	1.9353
2.72994	1.937
2.72134	1.9199
2.7128	1.9143
2.70431	1.9094
2.69587	1.906
2.68748	1.9307
2.67915	1.9595
2.67087	1.9956
2.66264	1.9936
2.65446	1.9695
2.64633	1.9722
2.63825	1.9912
2.63021	1.9746
2.62223	1.9807
2.6143	2.0061
2.60641	1.998
2.59857	1.9956
2.59078	1.9922
2.58304	1.981
2.57534	2.0049
2.56768	1.9849
2.56008	1.9665
2.55251	1.9695
2.54499	1.9673
2.53752	1.977
2.53009	1.978
2.5227	1.9717
2.51536	1.9873
2.50806	1.9644
2.5008	1.9619
2.49358	1.9551
2.4864	1.9668
2.47927	1.9463
2.47218	1.9619
2.46512	1.9424
2.45811	1.9477
2.45114	1.9517
2.4442	1.9526
2.43731	1.9775
2.43045	1.9575
2.42363	1.9387
2.41685	1.958
2.41011	1.9707
2.40341	1.9597
2.39674	1.9509
2.39011	1.9617
2.38352	1.9668
2.37696	1.967
2.37044	1.9536
2.36395	1.9514
2.35751	1.9416
2.35109	1.9221
2.34471	1.9604
2.33836	1.9365
2.33205	1.9145
2.32578	1.8955
2.31953	1.9004
2.31332	1.8726
2.30714	1.9397
2.301	1.9297
2.29489	1.9485
2.28881	1.9204
2.28276	1.9365
2.27675	1.9436
2.27076	1.9299
2.26481	1.9199
2.25889	1.9346
2.253	1.929
2.24714	1.9199
2.24131	1.9111
2.23551	1.9253
2.22974	1.9268
2.224	1.9404
2.21829	1.925
2.21261	1.937
2.20696	1.9521
2.20134	1.9253
2.19574	1.9507
2.19018	1.929
2.18464	1.9556
2.17913	1.9299
2.17365	1.9258
2.16819	1.9163
2.16277	1.9351
2.15737	1.9468
2.15199	1.9182
2.14665	1.9531
2.14133	1.8955
2.13603	1.9321
2.13077	1.9788
2.12552	1.915
2.12031	1.9912
2.11512	1.9104
2.10995	1.958
2.10481	1.9004
2.0997	1.9329
2.09461	1.9016
2.08954	1.8999
2.0845	1.9641
2.07948	1.9424
