Name: Talc Mg3Si4O10(OH)2
Type: Mineral
Class: Silicates
Subclass: Phyllosilicates (Sheets silicates);  (Talc/Pyrophyllite Group)
Particle Size: Fine  (Less than 2 Micrometers)
Sample No.: talc.1
Owner: JHU
Wavelength Range: IR
Origin: Feiser Mine, Ruby Mountains, Montana, USA via Jim Crowley,
Description: The hand sample was massive, compact, translucent,
Measurement: Transmission
X Units: Wavelength (micrometers)
Y Units: Transmittance (percent)
wavelength	value
25.0442	46.8163
24.3388	44.8671
23.6719	19.6289
23.0407	21.1992
22.4422	8.3515
21.8741	8.2627
21.334	5.1445
20.8199	18.1337
20.33	30.3964
19.8627	35.1015
19.4163	45.098
18.9896	44.8226
18.5812	40.1181
18.19	58.4881
17.815	67.3636
17.4551	73.3851
17.1094	78.0203
16.7772	80.7654
16.4576	82.1746
16.15	83.7664
15.8537	84.4602
15.568	82.5901
15.2925	73.1487
15.0265	32.4296
14.7697	41.6664
14.5214	60.1883
14.2814	74.0594
14.0492	81.929
13.8244	85.501
13.6067	87.4383
13.3957	88.5791
13.1912	88.8357
12.9929	89.0059
12.8004	87.751
12.6135	88.4798
12.432	88.6179
12.2557	88.0117
12.0843	86.906
11.9176	85.6348
11.7555	83.5977
11.5977	80.9754
11.444	78.1849
11.2944	75.2669
11.1487	71.7449
11.0067	67.4747
10.8682	62.5228
10.7332	56.1896
10.6015	48.2091
10.473	39.8261
10.3476	32.1711
10.2251	23.7065
10.1056	14.6635
9.98873	6.573
9.87458	1.6008
9.763	1.8826
9.65392	5.4765
9.54724	8.3794
9.44291	17.5764
9.34082	27.1215
9.24091	34.3183
9.14312	39.548
9.04739	44.3348
8.95363	48.4852
8.8618	52.0094
8.77183	55.3773
8.68368	59.2738
8.59727	62.9591
8.51257	65.4925
8.42951	67.6126
8.34807	69.5985
8.26819	71.3113
8.18981	72.782
8.11292	74.178
8.03745	75.3055
7.96337	76.5992
7.89064	77.6619
7.81924	78.3357
7.74911	78.9395
7.68023	79.4454
7.61256	80.2278
7.54608	81.0047
7.48074	81.7183
7.41653	82.1775
7.35341	82.6297
7.29136	83.1228
7.23034	83.4192
7.17033	84.1597
7.11132	84.5686
7.05327	84.7449
6.99616	85.1746
6.93996	85.7893
6.88467	86.0052
6.83024	86.1531
6.77667	86.4187
6.72393	86.7971
6.67201	87.2009
6.62089	87.4505
6.57054	87.6663
6.52095	87.7732
6.4721	88.0257
6.42398	88.2786
6.37657	88.3142
6.32986	88.3692
6.28382	88.4348
6.23845	88.2381
6.19373	87.68
6.14965	87.1599
6.10619	86.7493
6.06334	86.8548
6.02109	88.0134
5.97942	88.6843
5.93832	88.9221
5.89778	89.26
5.8578	89.0491
5.81835	89.4651
5.77943	89.7615
5.74103	89.9798
5.70314	89.9827
5.66574	89.8162
5.62883	90.0047
5.5924	89.989
5.55644	89.801
5.52093	89.6492
5.48588	89.5798
5.45127	89.8557
5.41709	90.2703
5.38334	90.2866
5.35	90.3821
5.31708	90.5217
5.28456	90.7117
5.25243	90.6853
5.2207	90.5359
5.18934	90.634
5.15836	90.8948
5.12775	90.989
5.09749	91.2168
5.0676	91.5369
5.03805	91.7681
5.00884	91.8137
4.97998	91.8162
4.95144	91.9028
4.92322	91.8704
4.89533	91.9544
4.86775	92.0076
4.84048	92.1304
4.81351	92.2097
4.78684	92.2236
4.76047	92.2835
4.73439	92.3401
4.70859	92.3247
4.68306	92.3645
4.65782	92.4324
4.63284	92.4795
4.60814	92.6856
4.58369	92.6316
4.5595	92.6511
4.53557	92.6931
4.51188	92.6824
4.48845	92.6799
4.46525	92.6963
4.44229	92.7009
4.41957	92.7803
4.39708	92.8076
4.37481	92.8687
4.35277	92.8948
4.33096	92.8557
4.30935	92.8857
4.28797	92.8147
4.26679	92.8359
4.24583	92.9451
4.22506	92.9229
4.2045	92.9158
4.18414	92.886
4.16398	92.9197
4.14401	92.915
4.12423	92.9753
4.10464	92.9959
4.08523	92.9544
4.066	92.9788
4.04696	92.9395
4.02809	93.0352
4.0094	92.9954
3.99088	92.9929
3.97253	92.9753
3.95435	92.949
3.93634	93.0088
3.91848	93.074
3.90079	92.9873
3.88326	93.0017
3.86589	92.9832
3.84867	93.0811
3.8316	93.0137
3.81468	93.0889
3.79791	93.0908
3.78129	93.0273
3.76482	93.0374
3.74848	92.9685
3.73229	92.9749
3.71624	92.9688
3.70032	92.9197
3.68454	92.8711
3.6689	92.8611
3.65338	92.803
3.638	92.8904
3.62275	92.8164
3.60762	92.8262
3.59262	92.8523
3.57775	92.7546
3.56299	92.7734
3.54836	92.79
3.53385	92.7607
3.51945	92.7136
3.50517	92.7996
3.49101	92.6814
3.47696	92.6433
3.46303	92.6668
3.4492	92.6628
3.43549	92.6023
3.42188	92.636
3.40838	92.4063
3.39499	92.4053
3.38171	92.4011
3.36852	92.4863
3.35544	92.1553
3.34246	92.199
3.32958	92.1267
3.3168	92.2334
3.30411	92.1865
3.29153	92.2766
3.27903	92.1785
3.26664	92.1589
3.25433	92.2097
3.24212	92.1936
3.23	92.1184
3.21797	92.0813
3.20603	92.0501
3.19418	91.9182
3.18241	91.926
3.17074	91.7732
3.15914	91.554
3.14763	91.5379
3.13621	91.3035
3.12487	91.1809
3.11361	91.0198
3.10243	90.6804
3.09133	90.3391
3.0803	90.1336
3.06936	90.01
3.0585	89.7205
3.04771	89.5296
3.037	89.28
3.02636	89.032
3.0158	88.6052
3.00531	88.0296
2.99489	87.4085
2.98454	86.6746
2.97427	85.614
2.96407	84.6863
2.95393	83.8679
2.94387	83.2581
2.93387	82.8767
2.92394	82.4085
2.91408	82.3416
2.90429	82.4148
2.89456	82.8338
2.88489	83.1209
2.87529	83.3553
2.86576	83.7615
2.85628	84.1658
2.84687	84.5369
2.83752	84.8533
2.82823	85.1131
2.81901	85.823
2.80984	85.9593
2.80073	86.3811
2.79168	86.8455
2.78269	87.5349
2.77376	88.3377
2.76488	88.969
2.75606	89.8577
2.7473	90.3172
2.73859	90.8416
2.72994	90.0535
2.72134	71.0433
2.7128	87.18
2.70431	89.8616
2.69587	90.8963
2.68748	91.3435
2.67915	91.6853
2.67087	91.8513
2.66264	91.9363
2.65446	91.9041
2.64633	92.0193
2.63825	91.8748
2.63021	92.158
2.62223	92.1326
2.6143	91.9685
2.60641	92.0007
2.59857	92.199
2.59078	92.2029
2.58304	92.4099
2.57534	92.1697
2.56768	92.1209
2.56008	92.1921
2.55251	91.9548
2.54499	92.0837
2.53752	92.2546
2.53009	92.3211
2.5227	92.0037
2.51536	92.0662
2.50806	92.2478
2.5008	92.1609
2.49358	92.3406
2.4864	92.2752
2.47927	92.2048
2.47218	92.2048
2.46512	92.2693
2.45811	92.2859
2.45114	92.3904
2.4442	92.1013
2.43731	92.5623
2.43045	92.4099
2.42363	92.4812
2.41685	92.6091
2.41011	92.4421
2.40341	92.4382
2.39674	92.0896
2.39011	92.0447
2.38352	92.1687
2.37696	92.117
2.37044	92.157
2.36395	92.3357
2.35751	92.1726
2.35109	92.239
2.34471	92.1521
2.33836	92.2742
2.33205	92.1648
2.32578	91.949
2.31953	92.2498
2.31332	91.5281
2.30714	91.7166
2.301	91.2898
2.29489	92.2732
2.28881	92.0837
2.28276	92.1892
2.27675	92.0173
2.27076	91.9822
2.26481	92.2068
2.25889	92.0662
2.253	92.0447
2.24714	92.1755
2.24131	92.0701
2.23551	92.2068
2.22974	92.2654
2.224	92.113
2.21829	91.992
2.21261	92.1599
2.20696	92.1209
2.20134	91.9451
2.19574	91.9705
2.19018	92.6267
2.18464	92.0271
2.17913	92.074
2.17365	92.2224
2.16819	92.1091
2.16277	92.1502
2.15737	92.2068
2.15199	91.947
2.14665	91.908
2.14133	91.5955
2.13603	92.238
2.13077	92.158
2.12552	91.9002
2.12031	91.8982
2.11512	91.9392
2.10995	92.1365
2.10481	92.1658
2.0997	92.3377
2.09461	92.3865
2.08954	91.9568
2.0845	92.1365
2.07948	92.1345
