Name: Beryl Be3Al2Si6O18
Type: Mineral
Class: Silicates
Subclass: Cyclosilicates (Ring Silicates)
Particle Size: Fine (Less than 74 Micrometers)
Sample No.: beryl.1
Owner: JHU
Wavelength Range: IR
Origin: Sample from Maine via Hunt and Salisbury Collection sample
Description: The hand sample was cut and polished along an
Measurement: Bidirectional reflectance
X Units: Wavelength (micrometers)
Y Units: Reflectance (percent)
wavelength	value
25.044	2.6221
24.339	2.6123
23.672	2.6279
23.041	3.1748
22.442	3.3704
21.874	3.293
21.334	3.0635
20.82	2.6973
20.33	2.8162
19.863	1.7383
19.416	2.4272
18.99	2.5825
18.581	2.5813
18.19	2.4475
17.815	1.5674
17.455	1.3162
17.109	1.7029
16.777	2.4036
16.458	2.1243
16.15	1.6184
15.854	1.9651
15.568	1.8638
15.292	1.4998
15.027	1.6738
14.77	1.9831
14.521	2.2019
14.281	1.9033
14.049	1.3328
13.824	1.4255
13.607	1.6374
13.396	1.7764
13.191	1.7703
12.993	1.3696
12.8	1.2637
12.614	1.3464
12.432	1.498
12.256	1.5403
12.084	1.3232
11.918	1.1396
11.755	1.2725
11.598	1.5303
11.444	1.6633
11.294	1.667
11.149	1.7002
11.007	1.7783
10.868	1.8865
10.733	2.0684
10.602	2.2715
10.473	2.5879
10.348	2.7163
10.225	2.5798
10.106	2.2695
9.989	1.7612
9.875	1.8
9.763	2.0845
9.654	1.9717
9.547	1.749
9.443	1.7117
9.341	1.8816
9.241	2.0476
9.143	2.2224
9.047	2.2729
8.954	2.2068
8.862	2.0498
8.772	1.7248
8.684	1.4622
8.597	1.4812
8.513	1.4902
8.43	1.5659
8.348	2.0371
8.268	2.3281
8.19	2.4604
8.113	2.5906
8.037	2.7449
7.963	2.9617
7.891	3.3064
7.819	4.0347
7.749	4.8525
7.68	4.3171
7.613	3.4434
7.546	2.4951
7.481	1.7683
7.417	1.3464
7.353	1.1448
7.291	1.1614
7.23	1.314
7.17	1.5337
7.111	1.7432
7.053	1.9639
6.996	2.2461
6.94	2.4675
6.885	2.6016
6.83	2.8555
6.777	3.26
6.724	3.6931
6.672	4.0496
6.621	4.4658
6.571	4.9563
6.521	4.8237
6.472	3.4636
6.424	4.3447
6.377	5.0713
6.33	5.4094
6.284	5.166
6.238	4.3315
6.194	5.1929
6.15	3.2976
6.106	3.4258
6.063	5.1885
6.021	5.8071
5.979	6.8271
5.938	7.1013
5.898	7.0517
5.858	6.8745
5.818	6.6216
5.779	6.6435
5.741	6.831
5.703	7.0332
5.666	7.062
5.629	6.8872
5.592	6.7243
5.556	6.9702
5.521	6.9238
5.486	7.0744
5.451	7.5749
5.417	7.9695
5.383	8.1797
5.35	8.1477
5.317	8.0107
5.285	7.6618
5.252	6.9272
5.221	6.0349
5.189	5.4651
5.158	5.3437
5.128	5.4736
5.097	5.9162
5.068	6.6443
5.038	7.2573
5.009	7.7825
4.98	8.3335
4.951	8.8227
4.923	9.2053
4.895	9.7163
4.868	10.3716
4.84	10.8996
4.814	11.3049
4.787	11.966
4.76	12.6257
4.734	13.0854
4.709	13.4079
4.683	13.5742
4.658	13.7187
4.633	13.9763
4.608	14.3139
4.584	14.5698
4.56	14.7851
4.536	14.9973
4.512	15.1106
4.488	15.0781
4.465	15.0622
4.442	15.258
4.42	15.5825
4.397	15.8945
4.375	16.1132
4.353	16.1374
4.331	16.1179
4.309	15.5981
4.288	14.1694
4.267	12.0576
4.246	9.7346
4.225	10.8405
4.205	12.4043
4.184	16.3994
4.164	17.5656
4.144	17.7517
4.124	17.7998
4.105	17.8181
4.085	17.8254
4.066	17.8764
4.047	17.8984
4.028	17.9526
4.009	18.0629
3.991	18.1518
3.973	18.227
3.954	18.2819
3.936	18.3403
3.918	18.3894
3.901	18.4497
3.883	18.4821
3.866	18.4934
3.849	18.5061
3.832	18.5207
3.815	18.5327
3.798	18.529
3.781	18.5029
3.765	18.5705
3.748	18.5654
3.732	18.5703
3.716	18.5554
3.7	18.5212
3.685	18.5026
3.669	18.479
3.653	18.4626
3.638	18.4389
3.623	18.4509
3.608	18.4311
3.593	18.4321
3.578	18.4121
3.563	18.3889
3.548	18.3405
3.534	18.3178
3.519	18.25
3.505	18.0864
3.491	18.1027
3.477	18.0991
3.463	18.0915
3.449	18.0063
3.435	17.9084
3.422	17.7067
3.408	17.6779
3.395	17.7578
3.382	17.7021
3.369	17.7031
3.355	17.7356
3.342	17.715
3.33	17.6538
3.317	17.5932
3.304	17.5466
3.292	17.4992
3.279	17.4582
3.267	17.4003
3.254	17.3593
3.242	17.2978
3.23	17.1682
3.218	16.9809
3.206	16.934
3.194	16.9243
3.182	16.8564
3.171	16.7229
3.159	16.6223
3.148	16.5864
3.136	16.488
3.125	16.3725
3.114	16.1906
3.102	15.8064
3.091	15.4209
3.08	15.7014
3.069	15.9262
3.058	15.936
3.048	15.8852
3.037	15.8093
3.026	15.7304
3.016	15.625
3.005	15.53
2.995	15.4301
2.985	15.3379
2.974	15.229
2.964	15.145
2.954	15.038
2.944	14.9052
2.934	14.7788
2.924	14.613
2.914	14.447
2.904	14.2209
2.895	13.9707
2.885	13.6357
2.875	13.1909
2.866	12.8154
2.856	12.5395
2.847	12.1948
2.838	11.9641
2.828	11.8364
2.819	11.1499
2.81	10.5634
2.801	10.1386
2.792	8.4228
2.783	4.7239
2.774	6.1645
2.765	9.6645
2.756	9.2563
2.747	8.229
2.739	6.9941
2.73	6.5556
2.721	6.894
2.713	6.2861
2.704	2.9592
2.696	6.0371
2.687	8.7812
2.679	9.9079
2.671	10.6216
2.663	11.3904
2.654	12.0403
2.646	12.6672
2.638	13.1157
2.63	13.3181
2.622	13.4311
2.614	13.351
2.606	13.1616
2.599	13.1098
2.591	13.1242
2.583	13.2216
2.575	13.3764
2.568	13.6399
2.56	13.9172
2.553	14.6154
2.545	15.6977
2.538	16.5195
2.53	16.955
2.523	17.2114
2.515	17.478
2.508	17.7192
2.501	18.1672
2.494	18.496
2.486	18.8828
2.479	19.1879
2.472	19.4016
2.465	19.5449
2.458	19.79
2.451	19.9531
2.444	20.0637
2.437	20.2089
2.43	20.373
2.424	20.4374
2.417	20.5449
2.41	20.6347
2.403	20.6987
2.397	20.6601
2.39	20.7121
2.384	20.6711
2.377	20.7512
2.37	20.8029
2.364	20.8361
2.358	20.9462
2.351	20.924
2.345	20.9155
2.338	20.854
2.332	20.9282
2.326	21.0087
2.32	21.0888
2.313	21.1196
2.307	21.1059
2.301	21.1933
2.295	21.1767
2.289	21.2128
2.283	21.2514
2.277	21.2324
2.271	21.3066
2.265	21.2939
2.259	21.3276
2.253	21.333
2.247	21.3315
2.241	21.3886
2.236	21.4301
2.23	21.4047
2.224	21.3618
2.218	21.3935
2.213	21.456
2.207	21.3398
2.201	21.2353
2.196	21.3925
2.19	21.3657
2.185	21.4609
2.179	21.3872
2.174	21.3935
2.168	21.4633
2.163	21.4863
2.157	21.4746
2.152	21.3164
2.147	21.332
2.141	21.4726
2.136	21.5117
2.131	21.5712
2.126	21.6298
2.12	21.4257
2.115	21.6176
2.11	21.5771
2.105	21.8203
2.1	21.7714
2.095	21.9091
2.09	21.9243
2.085	21.8989
2.079	21.9726
