Name: Quartz SiO2
Type: Mineral
Class: Silicates
Subclass: Tectosilicates (Silica Group)
Particle Size: Fine  (0-74  Micrometers)
Sample No.: quartz.2
Owner: JHU
Wavelength Range: IR
Origin: Rock Springs, Arkansas via Hunt and Salisbury Collection
Description: No solid sample was available, but the powdered sample
Measurement: Bidirectional reflectance
X Units: Wavelength (micrometers)
Y Units: Reflectance (percent)
wavelength	value
25.0442	2.6797
24.3388	2.4346
23.6719	2.8559
23.0407	2.9248
22.4422	2.7981
21.8741	3.2734
21.334	3.5298
20.8199	3.9609
20.33	4.6033
19.8627	4.685
19.4163	2.8809
18.9896	2.5229
18.5812	3.9072
18.19	5.8467
17.815	4.8342
17.4551	4.6509
17.1094	5.4568
16.7772	5.938
16.4576	6.0962
16.15	5.9609
15.8537	6.0661
15.568	5.8418
15.2925	5.6162
15.0265	5.1323
14.7697	4.3266
14.5214	2.543
14.2814	1.6692
14.0492	3.5786
13.8244	4.2051
13.6067	4.1018
13.3957	3.7932
13.1912	3.0239
12.9929	2.0879
12.8004	2.0134
12.6135	1.5671
12.432	1.6782
12.2557	1.0662
12.0843	2.5488
11.9176	3.5061
11.7555	4.082
11.5977	4.3559
11.444	4.4827
11.2944	4.6623
11.1487	4.7107
11.0067	4.7622
10.8682	4.6406
10.7332	4.3987
10.6015	4.062
10.473	3.8826
10.3476	3.5857
10.2251	3.3291
10.1056	2.9809
9.98873	2.7598
9.87458	2.6958
9.763	2.4932
9.65392	2.2917
9.54724	2.2568
9.44291	2.6233
9.34082	3.8396
9.24091	4.0105
9.14312	3.9656
9.04739	4.0266
8.95363	4.0957
8.8618	4.1526
8.77183	4.1238
8.68368	3.906
8.59727	3.3591
8.51257	4.3401
8.42951	4.3345
8.34807	4.4077
8.26819	4.9502
8.18981	6.0432
8.11292	6.3511
8.03745	6.0322
7.96337	5.822
7.89064	4.978
7.81924	4.2727
7.74911	4.2373
7.68023	3.792
7.61256	2.7612
7.54608	1.8481
7.48074	0.8611
7.41653	0.3865
7.35341	0.3687
7.29136	0.595
7.23034	1.0898
7.17033	1.5676
7.11132	2.177
7.05327	2.4944
6.99616	2.9346
6.93996	3.3752
6.88467	3.5635
6.83024	3.5142
6.77667	3.3965
6.72393	3.1404
6.67201	3.3408
6.62089	3.5432
6.57054	3.3633
6.52095	3.8762
6.4721	5.3747
6.42398	5.9631
6.37657	5.4079
6.32986	4.5054
6.28382	3.5537
6.23845	2.9082
6.19373	2.8364
6.14965	3.855
6.10619	5.0881
6.06334	5.6838
6.02109	5.6079
5.97942	4.9487
5.93832	4.3611
5.89778	5.092
5.8578	6.1621
5.81835	7.0495
5.77943	7.769
5.74103	8.3164
5.70314	8.4966
5.66574	7.4316
5.62883	5.6291
5.5924	4.9619
5.55644	4.9971
5.52093	5.6687
5.48588	6.5303
5.45127	6.9846
5.41709	5.9136
5.38334	3.9209
5.35	3.1182
5.31708	3.2366
5.28456	3.6238
5.25243	4.6037
5.2207	6.2612
5.18934	6.9282
5.15836	6.74
5.12775	6.5513
5.09749	6.3847
5.0676	5.7952
5.03805	5.7126
5.00884	5.6216
4.97998	6.1123
4.95144	7.4641
4.92322	8.2014
4.89533	10.4973
4.86775	12.6574
4.84048	13.7734
4.81351	14.4641
4.78684	14.9931
4.76047	15.3798
4.73439	15.6235
4.70859	15.4948
4.68306	14.7602
4.65782	15.4636
4.63284	16.206
4.60814	16.6333
4.58369	16.778
4.5595	16.666
4.53557	16.0896
4.51188	15.0915
4.48845	14.2544
4.46525	14.0105
4.44229	14.4782
4.41957	14.8659
4.39708	15.4013
4.37481	16.0483
4.35277	16.5869
4.33096	16.8801
4.30935	16.8757
4.28797	16.8361
4.26679	17.0488
4.24583	17.153
4.22506	17.125
4.2045	17.1359
4.18414	17.2297
4.16398	17.4028
4.14401	17.5246
4.12423	17.686
4.10464	17.8815
4.08523	18.0722
4.066	18.1897
4.04696	18.1801
4.02809	18.1286
4.0094	18.0583
3.99088	17.9892
3.97253	18.0632
3.95435	18.2629
3.93634	18.4619
3.91848	18.5693
3.90079	18.5588
3.88326	18.4941
3.86589	18.4216
3.84867	18.4128
3.8316	18.4931
3.81468	18.5786
3.79791	18.6137
3.78129	18.6079
3.76482	18.5585
3.74848	18.4919
3.73229	18.5114
3.71624	18.6159
3.70032	18.749
3.68454	18.8981
3.6689	19.0334
3.65338	19.1352
3.638	19.1774
3.62275	19.1826
3.60762	19.1967
3.59262	19.2241
3.57775	19.2387
3.56299	19.2844
3.54836	19.3376
3.53385	19.3449
3.51945	19.3115
3.50517	19.1691
3.49101	19.2084
3.47696	19.2351
3.46303	19.3386
3.4492	19.3183
3.43549	19.2531
3.42188	19.1242
3.40838	19.125
3.39499	19.2495
3.38171	19.2687
3.36852	19.322
3.35544	19.3991
3.34246	19.4782
3.32958	19.5354
3.3168	19.54
3.30411	19.5385
3.29153	19.5207
3.27903	19.4907
3.26664	19.4697
3.25433	19.4621
3.24212	19.4311
3.23	19.4135
3.21797	19.3776
3.20603	19.3569
3.19418	19.3186
3.18241	19.2946
3.17074	19.2558
3.15914	19.2043
3.14763	19.1352
3.13621	19.0239
3.12487	18.9758
3.11361	18.9716
3.10243	18.968
3.09133	18.9284
3.0803	18.9038
3.06936	18.8637
3.0585	18.7905
3.04771	18.7009
3.037	18.6157
3.02636	18.5529
3.0158	18.5153
3.00531	18.5105
2.99489	18.5361
2.98454	18.5021
2.97427	18.3911
2.96407	18.1376
2.95393	18.1042
2.94387	18.2438
2.93387	18.301
2.92394	18.3125
2.91408	18.3291
2.90429	18.4023
2.89456	18.5073
2.88489	18.5444
2.87529	18.4721
2.86576	18.5405
2.85628	18.6389
2.84687	18.6772
2.83752	18.7368
2.82823	18.8208
2.81901	18.8964
2.80984	18.937
2.80073	18.9819
2.79168	19.0444
2.78269	19.0664
2.77376	19.0981
2.76488	19.1098
2.75606	19.1845
2.7473	19.3193
2.73859	19.4423
2.72994	19.6044
2.72134	19.7939
2.7128	19.9999
2.70431	20.1494
2.69587	20.3569
2.68748	20.5532
2.67915	20.5937
2.67087	20.5234
2.66264	21.0185
2.65446	21.0864
2.64633	21.1303
2.63825	21.1616
2.63021	21.1323
2.62223	21.1474
2.6143	21.1689
2.60641	21.1662
2.59857	21.1984
2.59078	21.2373
2.58304	21.236
2.57534	21.2145
2.56768	21.2221
2.56008	21.2358
2.55251	21.216
2.54499	21.2436
2.53752	21.2712
2.53009	21.2265
2.5227	21.207
2.51536	21.2321
2.50806	21.2558
2.5008	21.2434
2.49358	21.2258
2.4864	21.2446
2.47927	21.2795
2.47218	21.2265
2.46512	21.2092
2.45811	21.218
2.45114	21.1992
2.4442	21.175
2.43731	21.207
2.43045	21.1799
2.42363	21.2163
2.41685	21.2348
2.41011	21.2426
2.40341	21.2316
2.39674	21.1997
2.39011	21.1728
2.38352	21.1914
2.37696	21.1513
2.37044	21.1904
2.36395	21.1596
2.35751	21.1789
2.35109	21.1777
2.34471	21.1328
2.33836	21.121
2.33205	21.0852
2.32578	21.0881
2.31953	21.1113
2.31332	21.1174
2.30714	21.0834
2.301	21.1047
2.29489	21.1057
2.28881	21.0898
2.28276	21.0842
2.27675	21.0314
2.27076	20.9589
2.26481	21.01
2.25889	20.9956
2.253	20.9953
2.24714	20.9396
2.24131	20.9592
2.23551	20.9873
2.22974	20.9426
2.224	20.8994
2.21829	20.9555
2.21261	20.935
2.20696	20.913
2.20134	20.8793
2.19574	20.9418
2.19018	20.915
2.18464	20.9775
2.17913	20.9262
2.17365	20.9443
2.16819	20.9711
2.16277	21.0234
2.15737	20.9716
2.15199	20.9301
2.14665	20.9282
2.14133	20.8862
2.13603	20.9838
2.13077	20.999
2.12552	20.997
2.12031	20.9687
2.11512	20.9321
2.10995	20.975
2.10481	20.9599
2.0997	21.0263
2.09461	21.06
2.08954	21.0302
2.0845	21.0615
2.07948	20.9999
