Name: Cerussite, PbCO3
Type: Mineral
Class: Carbonates
Particle Size: Coarse  (74-250 Micrometers)
Sample No.: cerussite.1
Owner: JHU
Wavelength Range: IR
Origin: Sample from Australia; donated by Norma Vergo.
Description: The sample was a light tan irregular mass and appeared
Measurement: Bidirectional reflectance
X Units: Wavelength (micrometers)
Y Units: Reflectance (percent)
wavelength	value
25.0442	1.6687
24.3388	1.9343
23.6719	2.155
23.0407	2.3984
22.4422	2.7598
21.8741	3.1338
21.334	3.5474
20.8199	3.8679
20.33	4.0764
19.8627	4.3645
19.4163	4.6035
18.9896	4.7539
18.5812	4.9106
18.19	4.9048
17.815	4.8816
17.4551	4.7558
17.1094	4.4846
16.7772	4.7405
16.4576	5.0852
16.15	4.1731
15.8537	3.654
15.568	3.5657
15.2925	3.4246
15.0265	2.5464
14.7697	3.2222
14.5214	1.5554
14.2814	2.5146
14.0492	3.6777
13.8244	2.8096
13.6067	2.5586
13.3957	3.5032
13.1912	3.8044
12.9929	3.4033
12.8004	2.9851
12.6135	2.9829
12.432	3.0259
12.2557	2.6721
12.0843	2.3679
11.9176	3.7168
11.7555	1.9575
11.5977	2.2966
11.444	2.4526
11.2944	3.24
11.1487	3.8042
11.0067	4.1948
10.8682	4.1782
10.7332	4.0129
10.6015	3.655
10.473	3.3567
10.3476	3.2815
10.2251	3.1899
10.1056	2.4018
9.98873	2.4871
9.87458	3.1765
9.763	3.3987
9.65392	3.0574
9.54724	2.281
9.44291	2.1907
9.34082	2.8686
9.24091	2.7952
9.14312	2.2122
9.04739	1.9663
8.95363	2.1006
8.8618	2.2266
8.77183	2.1853
8.68368	2.2048
8.59727	2.2236
8.51257	2.2341
8.42951	2.2192
8.34807	2.1514
8.26819	2.1018
8.18981	2.0894
8.11292	2.0818
8.03745	2.0703
7.96337	2.0532
7.89064	2.0532
7.81924	2.0796
7.74911	2.1179
7.68023	2.1514
7.61256	2.189
7.54608	2.2693
7.48074	2.4109
7.41653	2.6079
7.35341	2.9155
7.29136	3.4504
7.23034	4.3552
7.17033	4.7258
7.11132	4.3213
7.05327	3.6973
6.99616	3.8286
6.93996	4.196
6.88467	4.1367
6.83024	3.8838
6.77667	3.5317
6.72393	2.9631
6.67201	2.1435
6.62089	1.3442
6.57054	0.844
6.52095	0.6968
6.4721	0.7083
6.42398	0.7502
6.37657	0.8015
6.32986	0.8674
6.28382	0.9424
6.23845	1.0149
6.19373	1.1052
6.14965	1.2478
6.10619	1.468
6.06334	1.7805
6.02109	2.1824
5.97942	2.5698
5.93832	2.9341
5.89778	3.0596
5.8578	3.3765
5.81835	2.3564
5.77943	1.3491
5.74103	1.4546
5.70314	3.7715
5.66574	5.1387
5.62883	5.312
5.5924	5.9543
5.55644	6.8276
5.52093	7.0771
5.48588	7.1072
5.45127	7.3672
5.41709	7.7502
5.38334	8.074
5.35	8.251
5.31708	8.3052
5.28456	8.4353
5.25243	8.7024
5.2207	8.9682
5.18934	9.1335
5.15836	9.2029
5.12775	9.2322
5.09749	9.1579
5.0676	8.9074
5.03805	8.542
5.00884	8.1418
4.97998	7.7383
4.95144	7.1792
4.92322	5.852
4.89533	4.605
4.86775	4.7278
4.84048	5.6028
4.81351	6.6189
4.78684	7.1277
4.76047	7.2326
4.73439	7.6484
4.70859	7.8147
4.68306	7.5378
4.65782	6.6831
4.63284	6.8852
4.60814	7.9099
4.58369	8.0239
4.5595	8.0774
4.53557	7.9787
4.51188	7.7539
4.48845	7.6374
4.46525	7.812
4.44229	7.8552
4.41957	7.7544
4.39708	7.563
4.37481	7.1658
4.35277	6.5708
4.33096	5.845
4.30935	5.0893
4.28797	4.3264
4.26679	3.6116
4.24583	3.1807
4.22506	2.9324
4.2045	2.6035
4.18414	2.2331
4.16398	1.9014
4.14401	1.7937
4.12423	1.9338
4.10464	2.1804
4.08523	2.3811
4.066	2.4624
4.04696	2.4927
4.02809	2.6204
4.0094	2.7739
3.99088	2.8789
3.97253	2.9961
3.95435	3.2053
3.93634	3.7312
3.91848	4.6741
3.90079	5.5173
3.88326	6.0122
3.86589	6.2905
3.84867	6.4099
3.8316	6.3347
3.81468	6.134
3.79791	5.8501
3.78129	5.501
3.76482	5.0571
3.74848	4.6313
3.73229	4.2825
3.71624	3.9199
3.70032	3.4524
3.68454	2.9141
3.6689	2.4961
3.65338	2.2978
3.638	2.2986
3.62275	2.3633
3.60762	2.3408
3.59262	2.3293
3.57775	2.3389
3.56299	2.3728
3.54836	2.438
3.53385	2.5542
3.51945	2.762
3.50517	3.0896
3.49101	3.5449
3.47696	4.0459
3.46303	4.5098
3.4492	4.9255
3.43549	5.3152
3.42188	5.6731
3.40838	6.0198
3.39499	6.3547
3.38171	6.6745
3.36852	6.9626
3.35544	7.2285
3.34246	7.4841
3.32958	7.7136
3.3168	7.8694
3.30411	7.9761
3.29153	8.0403
3.27903	7.8806
3.26664	7.6199
3.25433	7.375
3.24212	7.0781
3.23	7.2849
3.21797	7.7163
3.20603	8.0141
3.19418	8.1001
3.18241	8.1057
3.17074	8.0906
3.15914	8.0849
3.14763	8.0617
3.13621	8.0146
3.12487	7.9797
3.11361	7.9668
3.10243	7.9499
3.09133	7.9387
3.0803	7.8955
3.06936	7.8645
3.0585	7.823
3.04771	7.7807
3.037	7.7304
3.02636	7.665
3.0158	7.6013
3.00531	7.5173
2.99489	7.4341
2.98454	7.3408
2.97427	7.2578
2.96407	7.1545
2.95393	7.0307
2.94387	6.9118
2.93387	6.8259
2.92394	6.7556
2.91408	6.5918
2.90429	6.1911
2.89456	6.2236
2.88489	6.8042
2.87529	7.1506
2.86576	7.332
2.85628	7.4038
2.84687	7.4709
2.83752	7.7131
2.82823	7.9241
2.81901	8.0925
2.80984	8.2754
2.80073	8.4753
2.79168	8.6797
2.78269	8.8679
2.77376	9.0351
2.76488	9.1733
2.75606	9.3071
2.7473	9.459
2.73859	9.5915
2.72994	9.7553
2.72134	9.854
2.7128	9.9206
2.70431	9.8735
2.69587	9.8076
2.68748	9.6792
2.67915	9.4001
2.67087	8.9402
2.66264	8.3637
2.65446	8.0354
2.64633	8.144
2.63825	8.3847
2.63021	8.5141
2.62223	8.553
2.6143	8.6513
2.60641	8.8222
2.59857	9.0246
2.59078	9.1677
2.58304	9.3235
2.57534	9.4785
2.56768	9.6789
2.56008	9.8664
2.55251	10.0281
2.54499	10.1118
2.53752	10.1755
2.53009	10.1855
2.5227	10.1421
2.51536	10.0849
2.50806	10.0029
2.5008	9.8864
2.49358	9.7617
2.4864	9.644
2.47927	9.5656
2.47218	9.4844
2.46512	9.4404
2.45811	9.4289
2.45114	9.4756
2.4442	9.5647
2.43731	9.5984
2.43045	9.5825
2.42363	9.5915
2.41685	9.6728
2.41011	9.7795
2.40341	9.8506
2.39674	9.9065
2.39011	9.9597
2.38352	10.0224
2.37696	10.1028
2.37044	10.1179
2.36395	10.1748
2.35751	10.2453
2.35109	10.3076
2.34471	10.3313
2.33836	10.3601
2.33205	10.3962
2.32578	10.4314
2.31953	10.4709
2.31332	10.4909
2.30714	10.5219
2.301	10.5827
2.29489	10.5869
2.28881	10.5869
2.28276	10.5901
2.27675	10.5991
2.27076	10.6196
2.26481	10.6035
2.25889	10.5935
2.253	10.6025
2.24714	10.6179
2.24131	10.635
2.23551	10.6267
2.22974	10.6579
2.224	10.6938
2.21829	10.7302
2.21261	10.7629
2.20696	10.739
2.20134	10.747
2.19574	10.7973
2.19018	10.8015
2.18464	10.7922
2.17913	10.7749
2.17365	10.7817
2.16819	10.8166
2.16277	10.8
2.15737	10.8083
2.15199	10.8152
2.14665	10.8232
2.14133	10.8086
2.13603	10.8501
2.13077	10.8371
2.12552	10.8435
2.12031	10.8479
2.11512	10.8349
2.10995	10.8349
2.10481	10.8462
2.0997	10.8286
2.09461	10.8562
2.08954	10.8037
2.0845	10.8181
2.07948	10.8196
