Name: Albite NaAlSi3O8
Type: Mineral
Class: Silicates
Subclass: Tectosilicates (Framework silicates) (Feldspar Group)
Particle Size: Solid
Sample No.: albite.1
Owner: JHU
Wavelength Range: IR
Origin: Sample from Rutherford, Virginia, USA via the Smithsonian
Description: The sample was a large (2 cm x 2 cm x 2 cm) fragment of
Measurement: Bidirectional reflectance
X Units: Wavelength (micrometers)
Y Units: Reflectance (percent)
wavelength	value
399.294	45.1581
410.867	37.8026
422.441	46.5341
434.015	24.1962
445.589	23.6352
457.162	34.0019
468.736	37.348
480.31	43.827
491.884	34.3212
503.457	18.0644
515.031	20.1193
526.605	22.1806
538.179	24.5024
549.752	28.6095
561.326	29.7648
572.9	39.3642
584.474	50.8819
596.047	52.631
607.621	44.8126
619.195	36.3222
630.768	30.8271
642.342	24.7739
653.916	36.4228
665.49	30.933
677.063	24.2741
688.637	23.7736
700.211	24.1992
711.785	25.2971
723.358	27.6769
734.932	25.0915
746.506	28.8678
758.08	25.1664
769.653	29.2206
781.227	18.5844
792.801	21.6166
804.374	20.499
815.948	21.5659
827.522	22.3388
839.096	23.0356
850.669	23.6674
862.243	24.289
873.817	24.9052
885.391	25.5239
896.964	26.2245
908.538	26.9457
920.112	27.8029
931.686	28.7529
943.259	29.9384
954.833	31.4064
966.407	33.2804
977.981	35.9711
989.554	40.8241
1001.13	51.2928
1012.7	52.6463
1024.28	43.8102
1035.85	71.4324
1047.42	73.5713
1059	55.8431
1070.57	52.1
1082.14	49.9159
1093.72	49.4623
1105.29	40.9132
1116.87	32.1349
1128.44	37.8764
1140.01	46.5736
1151.59	51.3695
1163.16	57.8148
1174.73	60.7843
1186.31	63.0116
1197.88	62.9154
1209.45	59.5055
1221.03	54.7591
1232.6	46.2018
1244.18	36.4377
1255.75	28.9882
1267.32	22.622
1278.9	15.1958
1290.47	7.6233
1302.05	5.0481
1313.62	6.0639
1325.19	7.1313
1336.77	8.0217
1348.34	8.7307
1359.91	9.3039
1371.49	9.7705
1383.06	10.1743
1394.63	10.5444
1406.21	10.9116
1417.78	11.1989
1429.36	11.4758
1440.93	11.6821
1452.5	11.906
1464.08	12.1152
1475.65	12.3213
1487.22	12.4424
1498.8	12.5825
1510.37	12.718
1521.95	12.7878
1533.52	12.9118
1545.09	13.0249
1556.67	13.1198
1568.24	13.2485
1579.82	13.3764
1591.39	13.4494
1602.96	13.5354
1614.54	13.5942
1626.11	13.6494
1637.68	13.7146
1649.26	13.779
1660.83	13.8178
1672.4	13.8393
1683.98	13.8225
1695.55	13.8496
1707.12	13.872
1718.7	13.823
1730.27	14.0036
1741.85	14.1928
1753.42	14.2273
1764.99	14.2075
1776.57	14.1845
1788.14	14.2104
1799.71	14.2089
1811.29	14.2414
1822.86	14.2607
1834.44	14.2749
1846.01	14.2859
1857.58	14.3105
1869.16	14.3347
1880.73	14.3691
1892.31	14.3784
1903.88	14.3896
1915.45	14.4043
1927.03	14.4331
1938.6	14.4331
1950.17	14.4448
1961.75	14.4477
1973.32	14.4528
1984.89	14.478
1996.47	14.5029
2008.04	14.5163
2019.62	14.5879
2031.19	14.5573
2042.76	14.5039
2054.34	14.5244
2065.91	14.6196
2077.49	14.5986
2089.06	14.5053
2100.63	14.5175
2112.21	14.5879
2123.78	14.6931
2135.35	14.7866
2146.93	14.8293
2158.5	14.9585
2170.07	15.163
2181.65	15.3559
2193.22	15.5605
2204.8	15.8051
2216.37	16.1648
2227.94	16.6362
2239.52	17.0703
2251.09	17.2666
2262.66	17.4108
2274.24	17.6276
2285.81	17.8891
2297.39	18.1626
2308.96	18.541
2320.53	19.0405
2332.11	19.538
2343.68	19.9455
2355.25	20.2582
2366.83	20.57
2378.4	20.8754
2389.97	21.0361
2401.55	21.1594
2413.12	21.2182
2424.7	21.2487
2436.27	21.2846
2447.84	21.3037
2459.42	21.3222
2470.99	21.3193
2482.57	21.3022
2494.14	21.2788
2505.71	21.2626
2517.29	21.2275
2528.86	21.2277
2540.43	21.2241
2552.01	21.2221
2563.58	21.2382
2575.16	21.2187
2586.73	21.1887
2598.3	21.185
2609.88	21.1572
2621.45	21.1513
2633.02	21.1357
2644.6	21.1308
2656.17	21.1215
2667.74	21.1225
2679.32	21.1005
2690.89	21.0683
2702.47	21.0483
2714.04	21.0024
2725.61	20.9682
2737.19	20.9692
2748.76	20.935
2760.34	20.8969
2771.91	20.8691
2783.48	20.8134
2795.06	20.7636
2806.63	20.6826
2818.2	20.5908
2829.78	20.4467
2841.35	20.2001
2852.93	19.8239
2864.5	20.1335
2876.07	20.1369
2887.65	20.0107
2899.22	19.7976
2910.79	19.4804
2922.37	19.2319
2933.94	19.4665
2945.51	19.5976
2957.09	19.4951
2968.66	19.6147
2980.24	19.5615
2991.81	19.4304
3003.38	19.2597
3014.96	19.1145
3026.53	19.0039
3038.1	18.8833
3049.68	18.769
3061.25	18.6958
3072.83	18.6191
3084.4	18.5542
3095.97	18.4785
3107.55	18.4135
3119.12	18.3498
3130.69	18.2609
3142.27	18.1928
3153.84	18.1193
3165.42	18.0478
3176.99	17.9318
3188.56	17.8398
3200.14	17.7402
3211.71	17.6796
3223.28	17.5832
3234.86	17.499
3246.43	17.4023
3258.01	17.3007
3269.58	17.2119
3281.15	17.1467
3292.73	17.0654
3304.3	16.9741
3315.87	16.8772
3327.45	16.7609
3339.02	16.6679
3350.59	16.5322
3362.17	16.467
3373.74	16.3847
3385.32	16.3081
3396.89	16.2053
3408.46	16.0937
3420.04	15.9545
3431.61	15.8349
3443.18	15.717
3454.76	15.5312
3466.33	15.2822
3477.91	14.8808
3489.48	14.9904
3501.05	14.7695
3512.63	14.4575
3524.2	15.4531
3535.78	15.7636
3547.35	15.8537
3558.92	15.8706
3570.5	15.8459
3582.07	15.8476
3593.64	15.7275
3605.22	15.6545
3616.79	15.6701
3628.36	15.7148
3639.94	15.8466
3651.51	15.8608
3663.09	15.9082
3674.66	15.8501
3686.23	15.831
3697.81	15.8051
3709.38	15.83
3720.95	15.8017
3732.53	15.7314
3744.1	15.6235
3755.68	15.5639
3767.25	15.4511
3778.82	15.3833
3790.4	15.3217
3801.97	15.1518
3813.54	15.1152
3825.12	14.9873
3836.69	14.874
3848.27	14.8027
3859.84	14.7187
3871.41	14.6269
3882.99	14.5537
3894.56	14.458
3906.13	14.3779
3917.71	14.2988
3929.28	14.2441
3940.86	14.1313
3952.43	14.041
3964	13.9868
3975.58	13.8828
3987.15	13.8447
3998.72	13.7622
4010.3	13.7148
4021.87	13.625
4033.45	13.541
4045.02	13.4716
4056.59	13.3423
4068.17	13.3364
4079.74	13.2798
4091.31	13.1757
4102.89	13.1372
4114.46	13.0605
4126.03	12.9775
4137.61	12.9262
4149.18	12.8774
4160.76	12.834
4172.33	12.7793
4183.9	12.709
4195.48	12.6782
4207.05	12.6313
4218.62	12.5937
4230.2	12.5498
4241.77	12.5107
4253.35	12.5156
4264.92	12.4443
4276.49	12.4433
4288.07	12.4131
4299.64	12.3789
4311.22	12.3242
4322.79	12.3408
4334.36	12.2949
4345.94	12.3183
4357.51	12.2773
4369.08	12.2148
4380.66	12.2363
4392.23	12.1963
4403.81	12.2715
4415.38	12.2236
4426.95	12.1982
4438.53	12.1758
4450.1	12.1728
4461.67	12.1347
4473.25	12.2402
4484.82	12.1611
4496.4	12.1455
4507.97	12.1992
4519.54	12.2187
4531.12	12.2314
4542.69	12.209
4554.26	12.1963
4565.84	12.1367
4577.41	12.1679
4588.98	12.1738
4600.56	12.1689
4612.13	12.2314
4623.7	12.2236
4635.28	12.208
4646.85	12.1767
4658.43	12.1689
4670	12.2715
4681.57	12.2773
4693.15	12.208
4704.72	12.2392
4716.3	12.2822
4727.87	12.2695
4739.44	12.2675
4751.02	12.3681
4762.59	12.2422
4774.16	12.3691
4785.74	12.332
4797.31	12.289
4808.89	12.3252
