Name: Alunite (potassium alunite) KAl3(SO4)2(OH)6
Type: Mineral
Class: Sulfates
Particle Size: Coarse (75 - 250 Micrometers)
Sample No.: alunite.2
Owner: JHU
Wavelength Range: IR
Origin: Utah; Hunt and Salisbury Collection #295 B (purchased from
Description: The sample is slightly pink in color, and appears pure
Measurement: Bidirectional Reflectance
X Units: Wavelength (micrometers)
Y Units: Reflectance (percent)
wavelength	value
25.0442	2.7825
24.3388	3.1902
23.6719	3.6479
23.0407	3.9424
22.4422	3.5688
21.8741	2.9639
21.334	3.1614
20.8199	3.3826
20.33	3.2515
19.8627	3.3901
19.4163	3.5679
18.9896	3.8391
18.5812	3.4048
18.19	3.5742
17.815	3.9612
17.4551	4.4114
17.1094	5.4255
16.7772	8.0937
16.4576	7.0752
16.15	5.1108
15.8537	7.2759
15.568	6.4639
15.2925	3.0815
15.0265	3.6946
14.7697	5.4856
14.5214	7.1894
14.2814	7.6211
14.0492	7.4668
13.8244	5.9653
13.6067	4.2656
13.3957	2.7422
13.1912	1.6731
12.9929	1.0864
12.8004	1.0046
12.6135	1.1265
12.432	1.2266
12.2557	1.3403
12.0843	1.4578
11.9176	1.5581
11.7555	1.6362
11.5977	1.7263
11.444	1.7937
11.2944	1.8127
11.1487	1.8623
11.0067	1.9126
10.8682	1.9673
10.7332	2.0493
10.6015	2.1057
10.473	2.1692
10.3476	2.2231
10.2251	2.2822
10.1056	2.3667
9.98873	2.4868
9.87458	2.6533
9.763	3.1138
9.65392	2.8401
9.54724	3.3223
9.44291	4.0574
9.34082	6.0066
9.24091	8.2976
9.14312	8.8791
9.04739	9.2048
8.95363	9.3972
8.8618	9.2138
8.77183	8.7707
8.68368	7.4468
8.59727	7.9341
8.51257	6.9204
8.42951	4.8711
8.34807	3.7439
8.26819	2.884
8.18981	2.2312
8.11292	1.8193
8.03745	1.7021
7.96337	1.9976
7.89064	2.5488
7.81924	3.2742
7.74911	3.1814
7.68023	2.1863
7.61256	1.1294
7.54608	0.6606
7.48074	0.717
7.41653	0.874
7.35341	1.0139
7.29136	1.0762
7.23034	1.1528
7.17033	1.209
7.11132	1.2314
7.05327	1.1865
6.99616	1.1814
6.93996	1.2283
6.88467	1.2651
6.83024	1.2495
6.77667	1.2163
6.72393	1.2244
6.67201	1.27
6.62089	1.3318
6.57054	1.406
6.52095	1.522
6.4721	1.5857
6.42398	1.5998
6.37657	1.5369
6.32986	1.5027
6.28382	1.4829
6.23845	1.4504
6.19373	1.3894
6.14965	1.3413
6.10619	1.3176
6.06334	1.311
6.02109	1.3459
5.97942	1.3621
5.93832	1.3833
5.89778	1.4712
5.8578	1.678
5.81835	1.8638
5.77943	2.0266
5.74103	2.1782
5.70314	2.3052
5.66574	2.4097
5.62883	2.5227
5.5924	2.5779
5.55644	2.6221
5.52093	2.6892
5.48588	2.8452
5.45127	3.0806
5.41709	3.2497
5.38334	3.345
5.35	3.3901
5.31708	3.4106
5.28456	3.4607
5.25243	3.5298
5.2207	3.5862
5.18934	3.6003
5.15836	3.6191
5.12775	3.6543
5.09749	3.6838
5.0676	3.7146
5.03805	3.7217
5.00884	3.7017
4.97998	3.6597
4.95144	3.6089
4.92322	3.4692
4.89533	3.1899
4.86775	2.8882
4.84048	2.5635
4.81351	2.6768
4.78684	2.2517
4.76047	1.5095
4.73439	1.2266
4.70859	1.2407
4.68306	1.2795
4.65782	1.3
4.63284	1.1975
4.60814	1.1443
4.58369	1.1289
4.5595	1.1721
4.53557	1.1746
4.51188	1.1826
4.48845	1.1807
4.46525	1.22
4.44229	1.2488
4.41957	1.29
4.39708	1.2998
4.37481	1.2563
4.35277	1.2744
4.33096	1.3489
4.30935	1.5137
4.28797	1.6047
4.26679	1.6655
4.24583	1.7512
4.22506	1.842
4.2045	1.9104
4.18414	1.9214
4.16398	1.9231
4.14401	1.9062
4.12423	1.9092
4.10464	1.9319
4.08523	1.9582
4.066	1.9851
4.04696	2.0117
4.02809	2.0354
4.0094	2.0459
3.99088	2.0627
3.97253	2.0754
3.95435	2.0825
3.93634	2.0908
3.91848	2.1089
3.90079	2.1111
3.88326	2.0854
3.86589	2.0327
3.84867	2.1064
3.8316	2.0952
3.81468	2.0828
3.79791	2.0486
3.78129	2.0232
3.76482	1.9888
3.74848	1.9556
3.73229	1.9028
3.71624	1.8564
3.70032	1.8125
3.68454	1.759
3.6689	1.7129
3.65338	1.6685
3.638	1.6257
3.62275	1.5823
3.60762	1.5354
3.59262	1.4995
3.57775	1.4612
3.56299	1.4285
3.54836	1.3948
3.53385	1.3574
3.51945	1.3384
3.50517	1.3081
3.49101	1.2756
3.47696	1.2603
3.46303	1.2417
3.4492	1.2202
3.43549	1.1999
3.42188	1.1846
3.40838	1.1609
3.39499	1.1374
3.38171	1.144
3.36852	1.1374
3.35544	1.1101
3.34246	1.1003
3.32958	1.0769
3.3168	1.0684
3.30411	1.0784
3.29153	1.0679
3.27903	1.0532
3.26664	1.0583
3.25433	1.0439
3.24212	1.0337
3.23	1.0278
3.21797	1.0247
3.20603	1.0095
3.19418	1.019
3.18241	1.0073
3.17074	0.9922
3.15914	0.9836
3.14763	0.9846
3.13621	0.9761
3.12487	0.9797
3.11361	1
3.10243	0.9744
3.09133	0.9663
3.0803	0.9636
3.06936	0.9695
3.0585	0.9592
3.04771	0.9582
3.037	0.9646
3.02636	0.978
3.0158	0.959
3.00531	0.9622
2.99489	0.9565
2.98454	0.9683
2.97427	0.9492
2.96407	0.9712
2.95393	0.9568
2.94387	0.968
2.93387	0.9902
2.92394	1.0154
2.91408	1.0583
2.90429	1.1033
2.89456	1.229
2.88489	1.4692
2.87529	2.0142
2.86576	3.5002
2.85628	1.1582
2.84687	0.7507
2.83752	0.832
2.82823	0.4031
2.81901	0.4644
2.80984	0.5198
2.80073	0.584
2.79168	0.614
2.78269	0.6631
2.77376	0.7219
2.76488	0.8479
2.75606	1.0806
2.7473	1.2549
2.73859	1.6309
2.72994	2.1687
2.72134	2.5896
2.7128	3.2329
2.70431	3.8096
2.69587	4.1899
2.68748	4.1094
2.67915	4.0229
2.67087	4.3335
2.66264	4.5759
2.65446	4.8992
2.64633	5.5915
2.63825	5.5879
2.63021	5.345
2.62223	5.1704
2.6143	5.0744
2.60641	4.7419
2.59857	4.7358
2.59078	4.279
2.58304	3.9892
2.57534	4.0752
2.56768	4.0959
2.56008	4.0469
2.55251	4.2654
2.54499	4.1902
2.53752	3.8481
2.53009	3.6047
2.5227	2.9199
2.51536	2.3799
2.50806	2.4976
2.5008	3.2395
2.49358	3.7475
2.4864	4.345
2.47927	4.3852
2.47218	3.905
2.46512	3.7727
2.45811	4.2607
2.45114	4.5034
2.4442	4.3999
2.43731	4.032
2.43045	3.8818
2.42363	4.2483
2.41685	4.6135
2.41011	4.9831
2.40341	5.167
2.39674	5.1836
2.39011	5.55
2.38352	6.3198
2.37696	7.1748
2.37044	7.7773
2.36395	8.1203
2.35751	8.2732
2.35109	8.3095
2.34471	8.1845
2.33836	7.7749
2.33205	7.1604
2.32578	6.6611
2.31953	6.406
2.31332	6.9062
2.30714	7.8542
2.301	8.5705
2.29489	8.9072
2.28881	9.1152
2.28276	9.1655
2.27675	9.2505
2.27076	9.2998
2.26481	9.3093
2.25889	9.3135
2.253	9.3674
2.24714	9.3254
2.24131	9.2646
2.23551	9.1157
2.22974	8.8232
2.224	8.2241
2.21829	6.9026
2.21261	5.439
2.20696	5.1533
2.20134	6.0681
2.19574	5.8369
2.19018	4.9763
2.18464	4.4929
2.17913	4.1684
2.17365	4.3755
2.16819	4.0957
2.16277	4.2248
2.15737	4.0681
2.15199	4.3716
2.14665	4.7541
2.14133	4.9184
2.13603	5.2002
2.13077	5.4277
2.12552	5.7563
2.12031	6.2915
2.11512	6.8286
2.10995	7.2639
2.10481	7.6548
2.0997	7.9243
2.09461	8.1245
2.08954	8.3071
2.0845	8.3662
2.07948	8.3623
