Name: Karoonda3
Type: Stony Meteorites
Class: Carbonaceous Chondrite
Subclass: C4 (CV/CO)
Particle Size: 0-75 micrometers
Sample No.: Karoonda3
Owner: JHU
Origin: Meteorite seen to fall in Australia in 1930.  Smithsonian sample No.
Description: None.
Measurement: Bidirectional reflectance
X Units: Wavelength (micrometers)
Y Units: Reflectance (percent)
wavelength	value
25.044	0.8386
24.339	0.8523
23.672	0.677
23.041	0.5078
22.442	0.4521
21.874	0.52
21.334	0.4983
20.82	0.6377
20.33	0.6758
19.863	0.6382
19.416	0.709
18.99	0.7249
18.581	0.73
18.19	0.676
17.815	0.6099
17.455	0.5854
17.109	0.5481
16.777	0.5359
16.458	0.5718
16.15	0.5913
15.854	0.582
15.568	0.5642
15.292	0.6118
15.027	0.666
14.77	0.7219
14.521	0.8247
14.281	0.9409
14.049	1.03
13.824	1.0952
13.607	1.1624
13.396	1.2222
13.191	1.2466
12.993	1.2927
12.8	1.3042
12.614	1.2747
12.432	1.1936
12.256	1.0422
12.084	0.8303
11.918	0.6624
11.755	0.7603
11.598	0.8325
11.444	0.9936
11.294	1.1116
11.149	1.1116
11.007	1.1201
10.868	1.1304
10.733	1.1313
10.602	0.9988
10.473	0.8164
10.348	0.7996
10.225	0.8218
10.106	0.7776
9.9887	0.7898
9.8746	0.8303
9.763	0.874
9.6539	0.896
9.5472	0.8879
9.4429	0.8286
9.3408	0.6978
9.2409	0.6011
9.1431	0.5745
9.0474	0.5996
8.9536	0.6489
8.8618	0.6934
8.7718	0.7341
8.6837	0.7725
8.5973	0.8306
8.5126	0.9084
8.4295	1.0049
8.3481	1.1157
8.2682	1.2139
8.1898	1.2861
8.1129	1.3415
8.0374	1.3911
7.9634	1.4307
7.8906	1.4651
7.8192	1.4985
7.7491	1.5339
7.6802	1.5503
7.6126	1.5684
7.5461	1.5962
7.4807	1.6367
7.4165	1.6689
7.3534	1.696
7.2914	1.7175
7.2303	1.7378
7.1703	1.751
7.1113	1.7664
7.0533	1.7866
6.9962	1.8076
6.94	1.822
6.8847	1.8284
6.8302	1.8389
6.7767	1.852
6.7239	1.8643
6.672	1.8655
6.6209	1.8691
6.5705	1.8638
6.5209	1.866
6.4721	1.8645
6.424	1.8557
6.3766	1.8586
6.3299	1.8586
6.2838	1.8633
6.2385	1.866
6.1937	1.8635
6.1496	1.8574
6.1062	1.8359
6.0633	1.7883
6.0211	1.7561
5.9794	1.7729
5.9383	1.7854
5.8978	1.7966
5.8578	1.8125
5.8184	1.8279
5.7794	1.8264
5.741	1.7981
5.7031	1.7573
5.6657	1.7305
5.6288	1.7473
5.5924	1.7832
5.5564	1.7959
5.5209	1.7978
5.4859	1.8003
5.4513	1.8125
5.4171	1.8291
5.3833	1.842
5.35	1.8484
5.3171	1.8506
5.2846	1.8555
5.2524	1.8623
5.2207	1.8791
5.1893	1.8892
5.1584	1.9011
5.1277	1.9067
5.0975	1.9092
5.0676	1.9102
5.038	1.9116
5.0088	1.9177
4.98	1.9265
4.9514	1.9421
4.9232	1.9558
4.8953	1.9692
4.8678	1.9744
4.8405	1.9792
4.8135	1.9824
4.7868	1.9844
4.7605	1.9836
4.7344	1.9858
4.7086	1.9873
4.6831	1.9866
4.6578	1.9883
4.6328	1.9905
4.6081	1.991
4.5837	1.9907
4.5595	1.9927
4.5356	1.9929
4.5119	1.9956
4.4884	1.9949
4.4652	2.0012
4.4423	2.0005
4.4196	2.0041
4.3971	2.0049
4.3748	2.0034
4.3528	2.0022
4.331	1.9905
4.3094	1.9697
4.288	1.9448
4.2668	1.9329
4.2458	1.9404
4.2251	1.9639
4.2045	1.9927
4.1841	1.9946
4.164	1.9958
4.144	1.9951
4.1242	1.9924
4.1046	1.9905
4.0852	1.9897
4.066	1.9875
4.047	1.9875
4.0281	1.9846
4.0094	1.9844
3.9909	1.9831
3.9725	1.9817
3.9544	1.9797
3.9363	1.9802
3.9185	1.978
3.9008	1.9792
3.8833	1.9766
3.8659	1.9788
3.8487	1.9792
3.8316	1.9756
3.8147	1.9736
3.7979	1.9744
3.7813	1.9751
3.7648	1.9714
3.7485	1.9692
3.7323	1.9683
3.7162	1.9656
3.7003	1.9587
3.6845	1.9587
3.6689	1.9534
3.6534	1.9497
3.638	1.9487
3.6227	1.9458
3.6076	1.9426
3.5926	1.9382
3.5777	1.9373
3.563	1.9319
3.5484	1.9285
3.5338	1.925
3.5195	1.9224
3.5052	1.9143
3.491	1.9111
3.477	1.9106
3.463	1.9123
3.4492	1.9055
3.4355	1.8979
3.4219	1.8906
3.4084	1.8884
3.395	1.8899
3.3817	1.8879
3.3685	1.8865
3.3554	1.8833
3.3425	1.8813
3.3296	1.8804
3.3168	1.8767
3.3041	1.8701
3.2915	1.865
3.279	1.8628
3.2666	1.8589
3.2543	1.8528
3.2421	1.8496
3.23	1.8455
3.218	1.8445
3.206	1.8415
3.1942	1.8411
3.1824	1.8308
3.1707	1.8308
3.1591	1.8271
3.1476	1.8286
3.1362	1.8213
3.1249	1.8169
3.1136	1.8166
3.1024	1.8108
3.0913	1.8071
3.0803	1.8042
3.0694	1.8003
3.0585	1.7974
3.0477	1.7917
3.037	1.7915
3.0264	1.7864
3.0158	1.7837
3.0053	1.7788
2.9949	1.7793
2.9845	1.7734
2.9743	1.77
2.9641	1.762
2.9539	1.7566
2.9439	1.7551
2.9339	1.7473
2.9239	1.7478
2.9141	1.7429
2.9043	1.7405
2.8946	1.7415
2.8849	1.7319
2.8753	1.7373
2.8658	1.7319
2.8563	1.7258
2.8469	1.7229
2.8375	1.7273
2.8282	1.7231
2.819	1.7163
2.8098	1.7161
2.8007	1.7146
2.7917	1.7136
2.7827	1.7122
2.7738	1.7122
2.7649	1.7158
2.7561	1.7114
2.7473	1.7131
2.7386	1.7187
2.7299	1.7148
2.7213	1.7126
2.7128	1.7136
2.7043	1.71
2.6959	1.7087
2.6875	1.7156
2.6791	1.7104
2.6709	1.7041
2.6626	1.7021
2.6545	1.7068
2.6463	1.6982
2.6382	1.6892
2.6302	1.6931
2.6222	1.6897
2.6143	1.6904
2.6064	1.6765
2.5986	1.6768
2.5908	1.6728
2.583	1.6797
2.5753	1.6733
2.5677	1.665
2.5601	1.6689
2.5525	1.6599
2.545	1.6609
2.5375	1.658
2.5301	1.6548
2.5227	1.6431
2.5154	1.6399
2.5081	1.644
2.5008	1.6404
2.4936	1.637
2.4864	1.6291
2.4793	1.6255
2.4722	1.6218
2.4651	1.6277
2.4581	1.6201
2.4511	1.6138
2.4442	1.6189
2.4373	1.6116
2.4305	1.6101
2.4236	1.604
2.4169	1.5937
2.4101	1.5955
2.4034	1.5854
2.3967	1.5901
2.3901	1.5774
2.3835	1.5771
2.377	1.5742
2.3704	1.5642
2.364	1.5701
2.3575	1.5674
2.3511	1.5688
2.3447	1.5591
2.3384	1.5598
2.3321	1.561
2.3258	1.5561
2.3195	1.5605
2.3133	1.5532
2.3071	1.5486
2.301	1.5522
2.2949	1.5427
2.2888	1.5439
2.2828	1.5466
2.2767	1.5508
2.2708	1.5386
2.2648	1.542
2.2589	1.54
2.253	1.5332
2.2471	1.5261
2.2413	1.5239
2.2355	1.5186
2.2297	1.5183
2.224	1.5195
2.2183	1.5259
2.2126	1.5303
2.207	1.5203
2.2013	1.5181
2.1957	1.5142
2.1902	1.5139
2.1846	1.5173
2.1791	1.5229
2.1736	1.5254
2.1682	1.5122
2.1628	1.5212
2.1574	1.5056
2.152	1.5195
2.1466	1.531
2.1413	1.5181
2.136	1.5146
2.1308	1.5061
2.1255	1.5178
2.1203	1.5142
2.1151	1.5142
2.11	1.5164
2.1048	1.5007
2.0997	1.5181
2.0946	1.5249
2.0895	1.5176
2.0845	1.5193
2.0795	1.5259
