Name: Gypsum (selenite) CaSO4.2H2O
Type: Mineral
Class: Sulfates
Particle Size: Fine  (0-74 micrometers)
Sample No.: gypsum.2
Owner: JHU
Wavelength Range: IR
Origin: Washington Co., Vermont, from Hunt and Salisbury Collection
Description: The sample appears to be pure semi-transparent
Measurement: Bidirectional reflectance
X Units: Wavelength (micrometers)
Y Units: Reflectance (percent)
wavelength	value
25.0442	0.5928
24.3388	0.7183
23.6719	0.5708
23.0407	0.6987
22.4422	0.7202
21.8741	0.8022
21.334	0.6782
20.8199	0.7969
20.33	0.8035
19.8627	0.7476
19.4163	0.793
18.9896	0.7319
18.5812	0.7339
18.19	0.6755
17.815	0.6245
17.4551	0.5637
17.1094	0.5388
16.7772	0.5566
16.4576	0.6199
16.15	0.4021
15.8537	0.4102
15.568	0.5569
15.2925	0.678
15.0265	0.6433
14.7697	0.9158
14.5214	0.9492
14.2814	0.8467
14.0492	0.8845
13.8244	0.9893
13.6067	1.0955
13.3957	1.1814
13.1912	1.2639
12.9929	1.2866
12.8004	1.3044
12.6135	1.3171
12.432	1.3162
12.2557	1.3286
12.0843	1.3245
11.9176	1.3037
11.7555	1.2913
11.5977	1.2886
11.444	1.2571
11.2944	1.2165
11.1487	1.2263
11.0067	1.228
10.8682	1.1887
10.7332	1.1611
10.6015	1.1409
10.473	1.1096
10.3476	1.0901
10.2251	1.054
10.1056	1.0312
9.98873	0.9568
9.87458	0.9624
9.763	0.9607
9.65392	0.9302
9.54724	0.8874
9.44291	0.8745
9.34082	0.8223
9.24091	0.7778
9.14312	0.7353
9.04739	0.8052
8.95363	0.9905
8.8618	1.0986
8.77183	1.2019
8.68368	1.2666
8.59727	1.3499
8.51257	1.4631
8.42951	1.7498
8.34807	1.9851
8.26819	1.6558
8.18981	1.0769
8.11292	0.6636
8.03745	0.447
7.96337	0.4077
7.89064	0.4968
7.81924	0.6641
7.74911	0.8787
7.68023	1.1186
7.61256	1.3425
7.54608	1.5498
7.48074	1.8142
7.41653	2.0884
7.35341	2.3579
7.29136	2.5957
7.23034	2.813
7.17033	2.9946
7.11132	3.1699
7.05327	3.3069
6.99616	3.4463
6.93996	3.5537
6.88467	3.5915
6.83024	3.6406
6.77667	3.6765
6.72393	3.6872
6.67201	3.6348
6.62089	3.5293
6.57054	3.3098
6.52095	3.1858
6.4721	3.1074
6.42398	2.9985
6.37657	2.8196
6.32986	2.4888
6.28382	2.0095
6.23845	1.3894
6.19373	0.7517
6.14965	0.6318
6.10619	1.0425
6.06334	1.6606
6.02109	1.8994
5.97942	1.5122
5.93832	0.8506
5.89778	1.4839
5.8578	2.4961
5.81835	3.157
5.77943	3.6262
5.74103	3.9978
5.70314	4.3396
5.66574	4.5923
5.62883	4.8135
5.5924	5.0156
5.55644	5.1831
5.52093	5.4416
5.48588	5.6902
5.45127	5.8694
5.41709	5.9709
5.38334	6.04
5.35	6.0925
5.31708	6.1684
5.28456	6.2236
5.25243	6.2988
5.2207	6.324
5.18934	6.2702
5.15836	6.1853
5.12775	6.1106
5.09749	6.0574
5.0676	6.0022
5.03805	5.98
5.00884	5.9595
4.97998	5.7732
4.95144	5.8589
4.92322	5.769
4.89533	5.5886
4.86775	5.385
4.84048	5.1638
4.81351	4.8247
4.78684	4.2663
4.76047	3.2695
4.73439	2.5225
4.70859	2.626
4.68306	2.6653
4.65782	2.8013
4.63284	2.7849
4.60814	2.6162
4.58369	2.3269
4.5595	2.02
4.53557	1.8772
4.51188	1.835
4.48845	1.8198
4.46525	1.8301
4.44229	1.9206
4.41957	2.1094
4.39708	2.3267
4.37481	2.5447
4.35277	2.769
4.33096	3.0569
4.30935	3.4785
4.28797	3.9529
4.26679	4.4053
4.24583	4.8286
4.22506	5.2168
4.2045	5.5542
4.18414	5.8667
4.16398	6.157
4.14401	6.4258
4.12423	6.6701
4.10464	6.9219
4.08523	7.1658
4.066	7.3979
4.04696	7.6174
4.02809	7.8152
4.0094	7.9729
3.99088	8.0471
3.97253	7.9883
3.95435	8.2917
3.93634	8.4953
3.91848	8.6301
3.90079	8.7104
3.88326	8.6733
3.86589	8.593
3.84867	8.8122
3.8316	8.8647
3.81468	8.8847
3.79791	8.8752
3.78129	8.8655
3.76482	8.855
3.74848	8.8335
3.73229	8.8015
3.71624	8.7768
3.70032	8.7449
3.68454	8.6865
3.6689	8.6081
3.65338	8.5068
3.638	8.4016
3.62275	8.2866
3.60762	8.1692
3.59262	8.0129
3.57775	7.8794
3.56299	7.7641
3.54836	7.6679
3.53385	7.5805
3.51945	7.4802
3.50517	7.3689
3.49101	7.26
3.47696	7.1338
3.46303	6.9883
3.4492	6.834
3.43549	6.6677
3.42188	6.5051
3.40838	6.3298
3.39499	6.1509
3.38171	5.9355
3.36852	5.7053
3.35544	5.48
3.34246	5.2749
3.32958	5.0581
3.3168	4.8003
3.30411	4.5212
3.29153	4.2466
3.27903	3.9748
3.26664	3.7427
3.25433	3.531
3.24212	3.3198
3.23	3.1216
3.21797	2.9053
3.20603	2.7146
3.19418	2.5007
3.18241	2.2922
3.17074	2.0554
3.15914	1.8186
3.14763	1.5913
3.13621	1.4199
3.12487	1.291
3.11361	1.1997
3.10243	1.0945
3.09133	0.9402
3.0803	0.844
3.06936	0.8696
3.0585	0.8464
3.04771	0.7957
3.037	0.7563
3.02636	0.7056
3.0158	0.6611
3.00531	0.6191
2.99489	0.594
2.98454	0.5825
2.97427	0.5364
2.96407	0.5017
2.95393	0.4604
2.94387	0.4329
2.93387	0.4336
2.92394	0.4268
2.91408	0.4136
2.90429	0.3989
2.89456	0.3787
2.88489	0.3643
2.87529	0.343
2.86576	0.2976
2.85628	0.2998
2.84687	0.3262
2.83752	0.3308
2.82823	0.3306
2.81901	0.3301
2.80984	0.3435
2.80073	0.3828
2.79168	0.4331
2.78269	0.5051
2.77376	0.5725
2.76488	0.6956
2.75606	0.9114
2.7473	1.2153
2.73859	1.5339
2.72994	1.8818
2.72134	2.2312
2.7128	2.6572
2.70431	3.1233
2.69587	3.5615
2.68748	3.9224
2.67915	4.199
2.67087	4.4629
2.66264	4.7761
2.65446	5.0752
2.64633	5.2832
2.63825	5.4599
2.63021	5.5168
2.62223	5.6377
2.6143	5.7034
2.60641	5.7431
2.59857	5.8274
2.59078	5.8638
2.58304	5.8652
2.57534	5.9043
2.56768	5.958
2.56008	6.0054
2.55251	6.0849
2.54499	6.1599
2.53752	6.2126
2.53009	6.2366
2.5227	6.1992
2.51536	6.1694
2.50806	6.1277
2.5008	6.0483
2.49358	5.9956
2.4864	5.9873
2.47927	6.0061
2.47218	6.0845
2.46512	6.2258
2.45811	6.3515
2.45114	6.4226
2.4442	6.4541
2.43731	6.4995
2.43045	6.5744
2.42363	6.6987
2.41685	6.8664
2.41011	7.1228
2.40341	7.4653
2.39674	7.8908
2.39011	8.3452
2.38352	8.7461
2.37696	9.0605
2.37044	9.3652
2.36395	9.5884
2.35751	9.7832
2.35109	9.9907
2.34471	10.0996
2.33836	10.2124
2.33205	10.2927
2.32578	10.3486
2.31953	10.3901
2.31332	10.4209
2.30714	10.4492
2.301	10.4394
2.29489	10.4282
2.28881	10.3745
2.28276	10.2612
2.27675	10.1123
2.27076	9.977
2.26481	10.0185
2.25889	10.1025
2.253	10.1626
2.24714	10.1699
2.24131	10.1362
2.23551	10.0825
2.22974	9.9829
2.224	9.7412
2.21829	9.6216
2.21261	9.6684
2.20696	9.7387
2.20134	9.9128
2.19574	9.9846
2.19018	10.0573
2.18464	10.1042
2.17913	10.104
2.17365	10.1198
2.16819	10.2231
2.16277	10.3327
2.15737	10.395
2.15199	10.445
2.14665	10.5156
2.14133	10.6291
2.13603	10.6826
2.13077	10.7712
2.12552	10.7971
2.12031	10.9189
2.11512	10.9721
2.10995	11.0595
2.10481	11.1269
2.0997	11.239
2.09461	11.3137
2.08954	11.3733
2.0845	11.3967
2.07948	11.4133
