Name: Phlogopite KMg3Si3AlO10(F, OH)2
Type: Mineral
Class: Silicates
Subclass: Phyllosilicates (Sheet Silicates); (Mica Group)
Particle Size: Solid
Sample No.: phlogop.2
Owner: JHU
Wavelength Range: IR
Origin: Ontario, Canada via the Hunt and Salisbury Collection #23B
Description: This second sample of phlogopite also displayed the
Measurement: Bidirectional reflectance
X Units: Wavelength (micrometers)
Y Units: Reflectance (percent)
wavelength	value
25.0442	23.0488
24.3388	25.455
23.6719	28.2079
23.0407	31.7353
22.4422	36.6796
21.8741	45.5214
21.334	57.7186
20.8199	57.0917
20.33	53.9535
19.8627	55.4706
19.4163	53.1117
18.9896	52.1786
18.5812	55.8324
18.19	55.0033
17.815	41.7638
17.4551	21.7775
17.1094	10.707
16.7772	9.0224
16.4576	8.4785
16.15	7.79
15.8537	7.3928
15.568	7.5471
15.2925	8.0127
15.0265	7.7168
14.7697	7.6328
14.5214	7.9053
14.2814	8.0881
14.0492	8.6748
13.8244	9.0039
13.6067	8.3098
13.3957	7.7295
13.1912	8.196
12.9929	8.5866
12.8004	8.9758
12.6135	9.8672
12.432	10.279
12.2557	11.0766
12.0843	11.1548
11.9176	11.893
11.7555	12.9643
11.5977	13.6435
11.444	14.2939
11.2944	15.1245
11.1487	16.0681
11.0067	16.8413
10.8682	17.6992
10.7332	19.1445
10.6015	21.6874
10.473	25.8063
10.3476	30.1078
10.2251	31.2424
10.1056	33.954
9.98873	43.1256
9.87458	55.8358
9.763	58.7772
9.65392	52.0941
9.54724	45.5868
9.44291	42.723
9.34082	43.5289
9.24091	45.9271
9.14312	45.9237
9.04739	40.2506
8.95363	31.7577
8.8618	26.0922
8.77183	19.9057
8.68368	12.6089
8.59727	5.7856
8.51257	1.9409
8.42951	1.4893
8.34807	1.9748
8.26819	2.4482
8.18981	3.0723
8.11292	3.5054
8.03745	4.1084
7.96337	4.4416
7.89064	4.7942
7.81924	5.3989
7.74911	5.4558
7.68023	5.9204
7.61256	6.4443
7.54608	6.5903
7.48074	6.9475
7.41653	7.3767
7.35341	7.7209
7.29136	8.1106
7.23034	8.5483
7.17033	9.0459
7.11132	9.6975
7.05327	10.4089
6.99616	10.9414
6.93996	11.5322
6.88467	12.3508
6.83024	12.934
6.77667	13.0547
6.72393	13.0844
6.67201	13.521
6.62089	14.0561
6.57054	14.1565
6.52095	13.7624
6.4721	13.2905
6.42398	12.9079
6.37657	12.6286
6.32986	11.9343
6.28382	11.1423
6.23845	10.6286
6.19373	10.529
6.14965	10.6089
6.10619	10.5588
6.06334	10.3659
6.02109	10.3066
5.97942	10.6123
5.93832	11.1123
5.89778	11.3933
5.8578	11.2964
5.81835	11.1238
5.77943	11.2165
5.74103	11.5881
5.70314	12.0652
5.66574	12.332
5.62883	12.4487
5.5924	12.6457
5.55644	13.0095
5.52093	13.6093
5.48588	14.2363
5.45127	14.7573
5.41709	15.4414
5.38334	16.6181
5.35	18.3818
5.31708	20.6025
5.28456	22.5842
5.25243	23.4301
5.2207	23.6298
5.18934	23.632
5.15836	23.497
5.12775	23.2995
5.09749	22.7348
5.0676	21.9497
5.03805	21.4001
5.00884	21.1511
4.97998	21.3203
4.95144	21.559
4.92322	21.4291
4.89533	21.2238
4.86775	21.2861
4.84048	21.6747
4.81351	22.393
4.78684	23.3427
4.76047	24.392
4.73439	25.425
4.70859	26.2626
4.68306	27.0683
4.65782	28.1562
4.63284	29.3622
4.60814	30.339
4.58369	31.1279
4.5595	31.8759
4.53557	32.5404
4.51188	32.9838
4.48845	33.2968
4.46525	33.5192
4.44229	33.602
4.41957	33.6361
4.39708	33.6879
4.37481	33.7848
4.35277	33.8703
4.33096	33.956
4.30935	34.0417
4.28797	34.1274
4.26679	34.213
4.24583	34.2987
4.22506	34.3844
4.2045	34.4701
4.18414	34.4926
4.16398	34.414
4.14401	34.4545
4.12423	34.5341
4.10464	34.7275
4.08523	34.8341
4.066	34.8647
4.04696	34.8825
4.02809	34.9057
4.0094	34.8922
3.99088	34.9943
3.97253	35.0448
3.95435	35.0773
3.93634	35.182
3.91848	35.1635
3.90079	35.1117
3.88326	35.0946
3.86589	35.2016
3.84867	35.37
3.8316	35.466
3.81468	35.434
3.79791	35.3969
3.78129	35.3583
3.76482	35.3266
3.74848	35.3688
3.73229	35.4733
3.71624	35.516
3.70032	35.519
3.68454	35.4643
3.6689	35.4613
3.65338	35.5155
3.638	35.6266
3.62275	35.703
3.60762	35.7116
3.59262	35.6757
3.57775	35.675
3.56299	35.736
3.54836	35.7489
3.53385	35.6664
3.51945	35.5024
3.50517	35.2357
3.49101	35.3539
3.47696	35.4062
3.46303	35.3896
3.4492	35.3593
3.43549	35.3261
3.42188	35.0375
3.40838	35.1454
3.39499	35.2777
3.38171	35.2279
3.36852	35.4491
3.35544	35.6044
3.34246	35.5749
3.32958	35.4413
3.3168	35.266
3.30411	35.0707
3.29153	34.8485
3.27903	34.5858
3.26664	34.2851
3.25433	33.9474
3.24212	33.5793
3.23	33.2358
3.21797	33.0951
3.20603	33.3197
3.19418	33.8617
3.18241	34.4887
3.17074	34.8295
3.15914	34.9482
3.14763	34.8883
3.13621	34.7382
3.12487	34.4818
3.11361	34.2655
3.10243	34.2094
3.09133	34.4591
3.0803	34.8993
3.06936	35.1752
3.0585	35.226
3.04771	35.2714
3.037	35.2802
3.02636	35.227
3.0158	35.1254
3.00531	35.0546
2.99489	35.1308
2.98454	35.268
2.97427	35.307
2.96407	35.2001
2.95393	34.9967
2.94387	34.8188
2.93387	34.6991
2.92394	34.5424
2.91408	34.4079
2.90429	34.3146
2.89456	34.2238
2.88489	34.0402
2.87529	33.8539
2.86576	33.6415
2.85628	33.2731
2.84687	32.8095
2.83752	32.3764
2.82823	31.7992
2.81901	31.3898
2.80984	31.2116
2.80073	31.1366
2.79168	30.6064
2.78269	29.9672
2.77376	29.9592
2.76488	29.2101
2.75606	28.4738
2.7473	28.0265
2.73859	27.0532
2.72994	26.7167
2.72134	27.257
2.7128	25.832
2.70431	20.676
2.69587	18.7629
2.68748	23.9824
2.67915	31.9081
2.67087	34.2472
2.66264	34.3988
2.65446	33.8437
2.64633	32.8161
2.63825	32.3031
2.63021	32.6957
2.62223	33.1689
2.6143	33.3402
2.60641	33.3505
2.59857	33.2318
2.59078	32.9965
2.58304	32.6435
2.57534	32.5111
2.56768	32.6254
2.56008	32.6476
2.55251	32.9252
2.54499	33.2384
2.53752	33.4113
2.53009	33.5463
2.5227	33.5089
2.51536	33.2834
2.50806	33.0197
2.5008	32.9316
2.49358	33.0119
2.4864	33.12
2.47927	33.1818
2.47218	33.2397
2.46512	33.1554
2.45811	32.924
2.45114	32.5287
2.4442	32.173
2.43731	32.1672
2.43045	32.4318
2.42363	32.5382
2.41685	32.2375
2.41011	31.83
2.40341	31.5539
2.39674	31.0614
2.39011	29.703
2.38352	28.0878
2.37696	28.2109
2.37044	29.4318
2.36395	30.4423
2.35751	30.913
2.35109	30.9838
2.34471	30.5959
2.33836	29.4523
2.33205	27.5268
2.32578	26.4404
2.31953	26.8632
2.31332	27.9054
2.30714	29.414
2.301	30.7919
2.29489	31.6896
2.28881	32.4677
2.28276	33.3715
2.27675	34.0136
2.27076	34.3778
2.26481	34.5434
2.25889	34.433
2.253	34.0644
2.24714	33.7973
2.24131	34.2055
2.23551	34.9672
2.22974	35.3607
2.224	35.4814
2.21829	35.5556
2.21261	35.5678
2.20696	35.5565
2.20134	35.5595
2.19574	35.5116
2.19018	35.5297
2.18464	35.5258
2.17913	35.495
2.17365	35.4687
2.16819	35.4467
2.16277	35.4198
2.15737	35.3944
2.15199	35.3788
2.14665	35.3417
2.14133	35.3212
2.13603	35.329
2.13077	35.3149
2.12552	35.3026
2.12031	35.3202
2.11512	35.3378
2.10995	35.3661
2.10481	35.3695
2.0997	35.3905
2.09461	35.3593
2.08954	35.3144
2.0845	35.3085
2.07948	35.3495
