Name: Prehnite Ca2Al2Si3O10(OH)2
Type: Mineral
Class: Silicates
Subclass: Phyllosilicates (Sheet Silicates); (Chlorite Group)
Particle Size: Fine  (Less than 2  Micrometers)
Sample No.: prehnite.1
Owner: JHU
Wavelength Range: IR
Origin: Paterson, New Jersey, USA via Norma Vergo
Description: The sample consisted of a cluster of light green,
Measurement: Transmission
X Units: Wavelength (micrometers)
Y Units: Transmittance (percent)
wavelength	value
25.044	60.9139
24.339	47.2655
23.672	44.6327
23.041	40.83
22.442	44.9452
21.874	52.0643
21.334	47.1913
20.82	50.2889
20.33	50.2987
19.863	50.9764
19.416	53.9686
18.99	52.9227
18.581	48.2303
18.19	54.0555
17.815	67.8162
17.455	80.2635
17.109	86.5603
16.777	90.3142
16.458	91.8591
16.15	92.9822
15.854	91.6013
15.568	91.7351
15.292	90.616
15.027	86.9597
14.77	86.6702
14.521	84.6585
14.281	81.0765
14.049	75.618
13.824	66.5428
13.607	51.6424
13.396	41.6483
13.191	45.911
12.993	56.1834
12.8	68.0936
12.614	66.1561
12.432	62.5194
12.256	58.6371
12.084	70.244
11.918	73.6248
11.755	72.0081
11.598	66.8597
11.444	62.8573
11.294	62.3245
11.149	57.0848
11.007	46.8759
10.868	34.4257
10.733	27.4599
10.602	29.3412
10.473	35.6039
10.348	31.4179
10.225	23.8793
10.106	19.4765
9.989	20.9951
9.875	26.9218
9.763	36.7548
9.654	49.681
9.547	52.5956
9.443	35.4755
9.341	32.7333
9.241	36.3183
9.143	36.0341
9.047	37.244
8.954	45.9164
8.862	56.5648
8.772	63.4779
8.684	68.8651
8.597	72.3409
8.513	75.2608
8.43	77.7425
8.348	80.0391
8.268	82.1084
8.19	83.6817
8.113	85.0183
8.037	86.1797
7.963	87.1199
7.891	87.958
7.819	88.4922
7.749	88.8479
7.68	88.9539
7.613	89.6106
7.546	91.1204
7.481	90.8792
7.417	91.0066
7.353	91.3694
7.291	92.1231
7.23	91.4209
7.17	88.6914
7.111	89.4348
7.053	91.2952
6.996	91.9785
6.94	93.3799
6.885	92.4461
6.83	93.4915
6.777	94.3623
6.724	94.3096
6.672	93.4187
6.621	90.9912
6.571	90.0215
6.521	89.6123
6.472	88.5383
6.424	88.6892
6.377	88.5828
6.33	89.3938
6.284	91.2246
6.238	87.7674
6.194	90.042
6.15	92.2813
6.106	94.2727
6.063	96.3425
6.021	97.4705
5.979	97.6865
5.938	96.3796
5.898	97.1504
5.858	98.3962
5.818	98.5957
5.779	99.0979
5.741	99.1855
5.703	99.2295
5.666	99.3293
5.629	99.4092
5.592	99.5378
5.556	99.5635
5.521	99.5652
5.486	99.456
5.451	99.3674
5.417	99.4443
5.383	99.7002
5.35	99.8467
5.317	100.155
5.285	100.368
5.252	100.6
5.221	100.723
5.189	100.811
5.158	100.836
5.128	100.848
5.097	100.933
5.068	101.019
5.038	101.091
5.009	101.112
4.98	101.133
4.951	101.159
4.923	101.165
4.895	101.155
4.868	101.157
4.84	101.197
4.814	101.292
4.787	101.32
4.76	101.397
4.734	101.425
4.709	101.439
4.683	101.421
4.658	101.45
4.633	101.477
4.608	101.475
4.584	101.487
4.56	101.497
4.536	101.442
4.512	101.42
4.488	101.366
4.465	101.278
4.442	101.266
4.42	101.253
4.397	101.241
4.375	101.233
4.353	101.204
4.331	101.187
4.309	101.153
4.288	101.154
4.267	101.126
4.246	101.129
4.225	101.08
4.205	101.028
4.184	101.013
4.164	100.97
4.144	100.898
4.124	100.872
4.105	100.845
4.085	100.766
4.066	100.679
4.047	100.639
4.028	100.604
4.009	100.523
3.991	100.439
3.973	100.309
3.954	100.163
3.936	100.128
3.918	100.113
3.901	99.9524
3.883	99.8801
3.866	99.7595
3.849	99.6394
3.832	99.4949
3.815	99.3972
3.798	99.2956
3.781	99.3577
3.765	99.3323
3.748	99.3049
3.732	99.324
3.716	99.1853
3.7	99.0779
3.685	98.989
3.669	98.9177
3.653	98.8328
3.638	98.7156
3.623	98.6921
3.608	98.6682
3.593	98.5691
3.578	98.4748
3.563	98.2966
3.548	98.1081
3.534	97.9939
3.519	97.8538
3.505	97.5608
3.491	97.5139
3.477	97.4226
3.463	97.3772
3.449	97.2502
3.435	97.0413
3.422	96.8225
3.408	96.4358
3.395	96.6155
3.382	96.1565
3.369	95.9788
3.355	96.1116
3.342	96.3103
3.33	96.5623
3.317	96.4436
3.304	96.2756
3.292	96.115
3.279	95.9158
3.267	95.8562
3.254	95.738
3.242	95.6091
3.23	95.3806
3.218	95.092
3.206	94.9436
3.194	95.1721
3.182	95.7517
3.171	96.1487
3.159	96.3166
3.148	96.3987
3.136	96.488
3.125	96.5159
3.114	96.4397
3.102	96.2439
3.091	95.8767
3.08	95.3718
3.069	94.9822
3.058	94.7859
3.048	94.866
3.037	95.0906
3.026	95.24
3.016	95.2009
3.005	95.0632
2.995	94.8494
2.985	94.6677
2.974	94.5408
2.964	94.5183
2.954	94.1638
2.944	93.1384
2.934	91.6453
2.924	89.8289
2.914	86.1697
2.904	78.8601
2.895	74.7039
2.885	74.0135
2.875	66.243
2.866	58.0643
2.856	70.2479
2.847	85.6687
2.838	94.7468
2.828	98.5935
2.819	100.012
2.81	100.61
2.801	100.735
2.792	100.775
2.783	100.775
2.774	100.852
2.765	100.769
2.756	100.527
2.747	100.794
2.739	100.463
2.73	100.677
2.721	100.49
2.713	100.654
2.704	100.324
2.696	100.047
2.687	99.9226
2.679	99.654
2.671	99.3445
2.663	99.5017
2.654	99.4304
2.646	99.3357
2.638	99.2419
2.63	98.8572
2.622	99.0359
2.614	98.8962
2.606	98.6521
2.599	98.7947
2.591	98.6677
2.583	98.4226
2.575	98.4158
2.568	98.4138
2.56	98.3318
2.553	98.3601
2.545	98.2429
2.538	98.2888
2.53	98.1814
2.523	98.0642
2.515	98.0759
2.508	98.0681
2.501	97.9001
2.494	97.7927
2.486	97.7361
2.479	97.699
2.472	97.6248
2.465	97.6091
2.458	97.5955
2.451	97.5876
2.444	97.4138
2.437	97.3943
2.43	97.3142
2.424	97.3513
2.417	97.1736
2.41	96.988
2.403	96.988
2.397	97.0154
2.39	96.9333
2.384	96.8376
2.377	96.8552
2.37	96.8669
2.364	96.8142
2.358	96.7107
2.351	96.7849
2.345	96.9392
2.338	96.8923
2.332	96.8083
2.326	96.8357
2.32	96.8923
2.313	96.9626
2.307	97.0388
2.301	96.906
2.295	96.8513
2.289	96.8669
2.283	96.8787
2.277	96.9529
2.271	96.8064
2.265	96.8826
2.259	96.9216
2.253	97.0154
2.247	96.8591
2.241	96.8982
2.236	96.8064
2.23	97.0017
2.224	97.0857
2.218	97.072
2.213	97.0955
2.207	97.2107
2.201	97.1423
2.196	97.0251
2.19	97.1013
2.185	97.1111
2.179	97.1638
2.174	97.197
2.168	97.0935
2.163	97.2888
2.157	97.2654
2.152	97.199
2.147	97.3162
2.141	97.2576
2.136	97.1951
2.131	97.3904
2.126	97.2537
2.12	97.113
2.115	97.4412
2.11	97.4138
2.105	97.4451
2.1	97.238
2.095	97.2849
2.09	97.5662
2.085	97.5427
2.079	97.3982
