Name: Zoisite (var. tanzanite) Ca2Al3(SiO4)3(OH)
Type: Mineral
Class: Silicates
Particle Size: Fine (Less than 2 Micrometers)
Sample No.: zoisite.1
Owner: JHU
Wavelength Range: IR
Origin: Arusha, Tanzania via the Smithsonian (sample no. NMNH
Description: The sample consisted of five euhedral, violet-blue
Measurement: Transmission
X Units: Wavelength (micrometers)
Y Units: Transmittance (percent)
wavelength	value
25.0442	35.1327
24.3388	41.7968
23.6719	49.953
23.0407	46.2968
22.4422	34.3456
21.8741	39.1112
21.334	29.5898
20.8199	37.1015
20.33	48.7186
19.8627	43.3104
19.4163	34.8593
18.9896	43.2509
18.5812	49.5321
18.19	32.3378
17.815	22.4941
17.4551	18.5078
17.1094	25.205
16.7772	31.3173
16.4576	42.0624
16.15	33.5038
15.8537	47.5858
15.568	49.7538
15.2925	35.2196
15.0265	38.5028
14.7697	50.8046
14.5214	51.8905
14.2814	46.1171
14.0492	52.5311
13.8244	57.0116
13.6067	69.243
13.3957	67.4998
13.1912	62.0975
12.9929	70.4652
12.8004	68.4886
12.6135	76.4295
12.432	79.3807
12.2557	77.1937
12.0843	69.4842
11.9176	60.869
11.7555	51.5101
11.5977	36.4145
11.444	32.6591
11.2944	26.0839
11.1487	21.5468
11.0067	18.8286
10.8682	25.1113
10.7332	23.8232
10.6015	16.8173
10.473	15.1684
10.3476	19.2558
10.2251	22.811
10.1056	30.8154
9.98873	41.4325
9.87458	48.3187
9.763	53.077
9.65392	56.6952
9.54724	58.9657
9.44291	60.201
9.34082	59.6248
9.24091	54.2342
9.14312	39.0653
9.04739	21.9223
8.95363	17.4287
8.8618	18.7856
8.77183	29.1933
8.68368	45.0634
8.59727	52.6449
8.51257	61.8656
8.42951	67.5985
8.34807	72.2176
8.26819	75.8084
8.18981	78.6268
8.11292	81.0411
8.03745	82.9539
7.96337	84.5449
7.89064	86.1494
7.81924	87.3408
7.74911	88.2276
7.68023	89.0159
7.61256	89.9463
7.54608	90.5234
7.48074	91.1355
7.41653	91.5283
7.35341	91.8836
7.29136	92.2717
7.23034	92.3796
7.17033	92.1943
7.11132	92.1328
7.05327	92.1484
6.99616	91.9607
6.93996	91.2168
6.88467	91.4299
6.83024	92.0596
6.77667	92.3086
6.72393	92.8555
6.67201	93.6375
6.62089	94.2109
6.57054	94.2302
6.52095	94.2302
6.4721	94.1941
6.42398	94.124
6.37657	93.9863
6.32986	93.4544
6.28382	92.6484
6.23845	91.573
6.19373	89.8591
6.14965	88.7793
6.10619	89.5584
6.06334	90.2754
6.02109	89.7761
5.97942	90.3906
5.93832	93.2839
5.89778	95.1912
5.8578	96.2363
5.81835	96.4724
5.77943	96.5779
5.74103	96.6953
5.70314	96.6868
5.66574	96.6045
5.62883	96.5098
5.5924	96.5977
5.55644	96.7029
5.52093	96.8113
5.48588	96.9475
5.45127	96.9958
5.41709	97.0264
5.38334	97.0742
5.35	97.1016
5.31708	97.1582
5.28456	97.196
5.25243	97.2371
5.2207	97.2283
5.18934	97.2031
5.15836	97.2986
5.12775	97.2898
5.09749	97.2578
5.0676	97.1638
5.03805	97.0154
5.00884	96.9441
4.97998	96.8748
4.95144	96.9641
4.92322	96.8889
4.89533	96.8074
4.86775	96.7478
4.84048	96.6428
4.81351	96.4788
4.78684	96.4031
4.76047	96.1589
4.73439	95.8889
4.70859	95.5164
4.68306	94.9397
4.65782	94.1316
4.63284	92.4915
4.60814	91.1663
4.58369	93.1907
4.5595	94.7542
4.53557	95.322
4.51188	95.5237
4.48845	95.5999
4.46525	95.7688
4.44229	95.866
4.41957	95.8074
4.39708	95.842
4.37481	95.8503
4.35277	95.8362
4.33096	95.8186
4.30935	95.7166
4.28797	95.6736
4.26679	95.5842
4.24583	95.5183
4.22506	95.4084
4.2045	95.364
4.18414	95.1956
4.16398	95.1995
4.14401	95.0706
4.12423	95.0432
4.10464	95.0115
4.08523	94.906
4.066	94.7332
4.04696	94.6892
4.02809	94.5525
4.0094	94.4983
3.99088	94.3064
3.97253	94.1765
3.95435	94.1038
3.93634	94.031
3.91848	93.9412
3.90079	93.8142
3.88326	93.5925
3.86589	93.446
3.84867	93.2849
3.8316	93.1804
3.81468	93.0525
3.79791	92.8923
3.78129	92.6951
3.76482	92.4749
3.74848	92.3484
3.73229	92.1736
3.71624	91.9592
3.70032	91.8308
3.68454	91.6795
3.6689	91.4304
3.65338	91.282
3.638	91.1487
3.62275	90.9207
3.60762	90.6746
3.59262	90.4568
3.57775	90.2371
3.56299	89.9627
3.54836	89.6199
3.53385	89.3909
3.51945	89.1174
3.50517	88.9851
3.49101	88.6638
3.47696	88.3323
3.46303	88.0525
3.4492	87.6355
3.43549	87.2771
3.42188	86.8225
3.40838	86.323
3.39499	85.7342
3.38171	85.1765
3.36852	84.5594
3.35544	83.6346
3.34246	82.8553
3.32958	82.2244
3.3168	81.2659
3.30411	80.325
3.29153	79.2991
3.27903	78.264
3.26664	77.4217
3.25433	76.4803
3.24212	75.3416
3.23	73.4847
3.21797	71.0526
3.20603	67.9051
3.19418	64.0731
3.18241	60.3299
3.17074	57.9041
3.15914	58.8885
3.14763	62.3797
3.13621	66.5076
3.12487	69.7488
3.11361	72.1199
3.10243	73.6893
3.09133	74.3895
3.0803	74.7625
3.06936	75.41
3.0585	76.3084
3.04771	77.5135
3.037	78.4266
3.02636	78.8641
3.0158	79.1072
3.00531	79.0037
2.99489	78.8328
2.98454	78.5799
2.97427	78.0154
2.96407	77.2508
2.95393	76.6492
2.94387	76.2986
2.93387	75.9383
2.92394	75.6307
2.91408	75.5486
2.90429	75.7049
2.89456	76.2
2.88489	76.8982
2.87529	77.3914
2.86576	78.1678
2.85628	78.9891
2.84687	79.7576
2.83752	80.3992
2.82823	80.9187
2.81901	81.3133
2.80984	81.8211
2.80073	82.4373
2.79168	83.0984
2.78269	83.7693
2.77376	84.5467
2.76488	84.9588
2.75606	85.6912
2.7473	86.364
2.73859	86.95
2.72994	87.3318
2.72134	87.7322
2.7128	87.7195
2.70431	87.6062
2.69587	88.0506
2.68748	88.2068
2.67915	88.2078
2.67087	88.2888
2.66264	88.114
2.65446	87.95
2.64633	87.8299
2.63825	87.8943
2.63021	87.6648
2.62223	87.5086
2.6143	87.3679
2.60641	87.3006
2.59857	87.2029
2.59078	87.2713
2.58304	87.1795
2.57534	87.0115
2.56768	86.5681
2.56008	86.7049
2.55251	86.656
2.54499	86.3963
2.53752	86.6033
2.53009	86.3396
2.5227	85.9802
2.51536	86.2888
2.50806	86.2185
2.5008	85.8924
2.49358	85.7713
2.4864	85.6267
2.47927	85.5701
2.47218	85.5271
2.46512	85.6209
2.45811	85.4627
2.45114	85.3455
2.4442	85.2224
2.43731	85.0349
2.43045	85.156
2.42363	85.0799
2.41685	85.1131
2.41011	84.9939
2.40341	84.8767
2.39674	84.7439
2.39011	84.4607
2.38352	84.6678
2.37696	84.3826
2.37044	84.283
2.36395	84.1795
2.35751	84.2029
2.35109	84.3045
2.34471	84.0232
2.33836	83.8748
2.33205	83.8006
2.32578	83.6267
2.31953	83.4705
2.31332	83.449
2.30714	83.4646
2.301	83.3279
2.29489	83.2654
2.28881	83.2674
2.28276	83.3982
2.27675	82.9314
2.27076	83.0877
2.26481	82.8435
2.25889	82.9373
2.253	83.0096
2.24714	82.6736
2.24131	82.8611
2.23551	82.3377
2.22974	82.8142
2.224	82.4295
2.21829	82.4783
2.21261	82.3826
2.20696	82.2986
2.20134	82.1736
2.19574	82.2381
2.19018	82.2185
2.18464	81.9021
2.17913	81.6873
2.17365	81.9529
2.16819	81.7693
2.16277	81.7889
2.15737	81.7537
2.15199	81.2889
2.14665	81.5193
2.14133	81.617
2.13603	80.9881
2.13077	81.5349
2.12552	81.3943
2.12031	81.2264
2.11512	81.0076
2.10995	81.2693
2.10481	81.1717
2.0997	81.0545
2.09461	81.0935
2.08954	80.656
2.0845	81.3787
2.07948	80.6404
