Name: Pyrophyllite Al2Si4010(OH)2
Type: Mineral
Class: Silicates
Subclass: Phyllosilicates (Sheet Silicates); Talk/Pyrophyllite Group
Particle Size: Soild
Sample No.: pyroph.1
Owner: JHU
Wavelength Range: IR
Origin: Stanley, North Carolina, USA via Bruce Hemingway, USGS
Description: The sample consisted of clusters of white radiating
Measurement: Bidirectional reflectance
X Units: Wavelength (micrometers)
Y Units: Reflectance (percent)
wavelength	value
25.0442	12.914
24.3388	14.2295
23.6719	13.6777
23.0407	13.9931
22.4422	16.2304
21.8741	19.8281
21.334	23.829
20.8199	27.2033
20.33	23.6835
19.8627	18.9047
19.4163	17.59
18.9896	22.5021
18.5812	29.9604
18.19	36.4652
17.815	37.4989
17.4551	34.1444
17.1094	25.1562
16.7772	29.0351
16.4576	33.4399
16.15	23.184
15.8537	22.5549
15.568	13.2382
15.2925	9.4575
15.0265	8.4707
14.7697	8.6294
14.5214	9.1142
14.2814	9.5908
14.0492	9.9555
13.8244	10.2451
13.6067	10.1338
13.3957	10.4936
13.1912	10.9455
12.9929	11.299
12.8004	11.6526
12.6135	11.8647
12.432	11.7375
12.2557	11.8122
12.0843	12.1953
11.9176	10.5051
11.7555	11.04
11.5977	9.9963
11.444	11.2075
11.2944	12.0207
11.1487	12.3591
11.0067	12.4736
10.8682	13.2378
10.7332	14.042
10.6015	15.9477
10.473	19.4399
10.3476	10.5801
10.2251	9.5366
10.1056	11.4995
9.98873	12.7922
9.87458	13.7072
9.763	14.736
9.65392	16.0649
9.54724	19.7001
9.44291	22.9726
9.34082	27.0888
9.24091	29.3693
9.14312	31.0558
9.04739	29.8739
8.95363	23.987
8.8618	34.89
8.77183	38.5993
8.68368	41.6034
8.59727	42.402
8.51257	40.2919
8.42951	35.8236
8.34807	33.2638
8.26819	31.7182
8.18981	30.1017
8.11292	28.3998
8.03745	26.3034
7.96337	23.1672
7.89064	19.1416
7.81924	14.6709
7.74911	9.9734
7.68023	5.9824
7.61256	3.5185
7.54608	3.2666
7.48074	3.6877
7.41653	4.3115
7.35341	4.9241
7.29136	5.4563
7.23034	5.9902
7.17033	6.4394
7.11132	6.9538
7.05327	7.4682
6.99616	8.0351
6.93996	8.3037
6.88467	8.6462
6.83024	8.9109
6.77667	9.3694
6.72393	9.8889
6.67201	10.3051
6.62089	10.3904
6.57054	10.3474
6.52095	10.5591
6.4721	10.7439
6.42398	11.0981
6.37657	11.2932
6.32986	11.6064
6.28382	12.1052
6.23845	12.4074
6.19373	12.4538
6.14965	12.3786
6.10619	12.3445
6.06334	12.572
6.02109	13.135
5.97942	13.0363
5.93832	12.5049
5.89778	12.3952
5.8578	12.2824
5.81835	11.4594
5.77943	11.1418
5.74103	11.062
5.70314	11.3825
5.66574	11.9316
5.62883	12.3972
5.5924	12.571
5.55644	12.4868
5.52093	12.5293
5.48588	12.3501
5.45127	12.1814
5.41709	12.0774
5.38334	11.8867
5.35	11.3025
5.31708	10.8808
5.28456	10.6845
5.25243	11.5053
5.2207	12.2102
5.18934	12.511
5.15836	13.165
5.12775	13.6574
5.09749	13.5844
5.0676	13.5161
5.03805	13.3935
5.00884	13.4067
4.97998	13.6948
4.95144	14.6198
4.92322	15.4406
4.89533	16.3535
4.86775	17.458
4.84048	18.196
4.81351	18.4353
4.78684	18.6347
4.76047	19.0141
4.73439	19.3288
4.70859	19.5251
4.68306	19.9011
4.65782	20.3249
4.63284	20.7185
4.60814	20.9951
4.58369	20.8178
4.5595	20.8613
4.53557	21.144
4.51188	21.3937
4.48845	21.7272
4.46525	22.07
4.44229	22.7138
4.41957	23.0056
4.39708	23.018
4.37481	23.2319
4.35277	23.1601
4.33096	22.8422
4.30935	22.2646
4.28797	21.6779
4.26679	21.7519
4.24583	21.7983
4.22506	21.9435
4.2045	23.9111
4.18414	24.8727
4.16398	24.9335
4.14401	24.9843
4.12423	25.0085
4.10464	25.0327
4.08523	25.0732
4.066	25.0788
4.04696	25.1108
4.02809	25.1613
4.0094	25.1684
3.99088	25.205
3.97253	25.2336
3.95435	25.2411
3.93634	25.2556
3.91848	25.2863
3.90079	25.278
3.88326	25.2961
3.86589	25.2978
3.84867	25.2997
3.8316	25.2651
3.81468	25.2084
3.79791	25.1784
3.78129	25.1642
3.76482	25.1552
3.74848	25.1479
3.73229	25.1179
3.71624	24.9943
3.70032	24.6215
3.68454	23.5524
3.6689	23.4609
3.65338	24.1613
3.638	24.956
3.62275	25.3268
3.60762	25.4235
3.59262	25.3456
3.57775	25.3488
3.56299	25.4279
3.54836	25.4518
3.53385	25.3964
3.51945	25.11
3.50517	24.0766
3.49101	24.8032
3.47696	25.0729
3.46303	25.0944
3.4492	24.7944
3.43549	24.2731
3.42188	23.1733
3.40838	23.7316
3.39499	24.5827
3.38171	24.6891
3.36852	25.0248
3.35544	25.3559
3.34246	25.4904
3.32958	25.498
3.3168	25.5151
3.30411	25.5055
3.29153	25.4203
3.27903	25.4743
3.26664	25.5956
3.25433	25.5693
3.24212	25.4472
3.23	25.4243
3.21797	25.4086
3.20603	25.3198
3.19418	25.2607
3.18241	25.0849
3.17074	24.7617
3.15914	24.7116
3.14763	24.83
3.13621	24.7831
3.12487	24.6725
3.11361	24.3925
3.10243	24.0546
3.09133	23.9387
3.0803	23.7285
3.06936	23.5161
3.0585	23.3276
3.04771	23.1996
3.037	22.9374
3.02636	22.7192
3.0158	22.2773
3.00531	21.7302
2.99489	21.58
2.98454	21.2446
2.97427	20.9726
2.96407	21.3481
2.95393	21.8066
2.94387	22.1501
2.93387	21.9057
2.92394	21.1061
2.91408	21.3671
2.90429	21.4247
2.89456	20.9892
2.88489	20.8437
2.87529	20.186
2.86576	19.8876
2.85628	19.9707
2.84687	20.1005
2.83752	20.5773
2.82823	20.9135
2.81901	20.788
2.80984	20.2678
2.80073	20.0922
2.79168	19.8293
2.78269	18.8645
2.77376	19.364
2.76488	18.2602
2.75606	17.9785
2.7473	16.3137
2.73859	15.0879
2.72994	14.2937
2.72134	14.1894
2.7128	15.0097
2.70431	15.8176
2.69587	17.2824
2.68748	18.6254
2.67915	19.2941
2.67087	19.6928
2.66264	20.2167
2.65446	20.4755
2.64633	20.5795
2.63825	20.4702
2.63021	20.4287
2.62223	20.3596
2.6143	19.7729
2.60641	19.3823
2.59857	19.228
2.59078	19.8012
2.58304	20.2485
2.57534	20.5009
2.56768	20.3254
2.56008	20.51
2.55251	20.4086
2.54499	20.4326
2.53752	20.9221
2.53009	20.8105
2.5227	20.5683
2.51536	20.2324
2.50806	20.052
2.5008	20.0891
2.49358	20.0361
2.4864	20.1767
2.47927	20.3964
2.47218	20.7646
2.46512	20.8586
2.45811	20.8466
2.45114	20.8032
2.4442	20.7434
2.43731	20.6193
2.43045	20.5695
2.42363	20.6518
2.41685	20.8703
2.41011	20.8456
2.40341	20.6943
2.39674	20.666
2.39011	20.4113
2.38352	20.7998
2.37696	21.454
2.37044	21.4728
2.36395	21.2629
2.35751	21.1132
2.35109	20.9667
2.34471	20.9663
2.33836	21.4599
2.33205	21.184
2.32578	20.436
2.31953	20.041
2.31332	20.3583
2.30714	20.8759
2.301	21.1171
2.29489	21.3081
2.28881	21.5488
2.28276	21.7724
2.27675	22.27
2.27076	22.6591
2.26481	22.8256
2.25889	22.9653
2.253	23.143
2.24714	23.2763
2.24131	23.3212
2.23551	23.4101
2.22974	23.4399
2.224	23.0312
2.21829	22.7597
2.21261	23.039
2.20696	23.1059
2.20134	22.6586
2.19574	23.0058
2.19018	22.7431
2.18464	22.1425
2.17913	20.6762
2.17365	18.0317
2.16819	15.3637
2.16277	16.3281
2.15737	19.4511
2.15199	21.124
2.14665	22.3398
2.14133	22.975
2.13603	23.2739
2.13077	23.5449
2.12552	23.8364
2.12031	24.1664
2.11512	24.4316
2.10995	24.6703
2.10481	24.748
2.0997	24.7031
2.09461	24.7211
2.08954	24.5761
2.0845	24.3173
2.07948	24.2446
