Name: Heulandite (Na,Ca)2-3Al3(Al,Si)2Si13O36.12H2O
Type: Mineral
Class: Silicates
Subclass: Tectosilicates (Zeolite Group)
Particle Size: Fine  (less than 2 micrometers)
Sample No.: heulan.2
Owner: JHU
Wavelength Range: IR
Origin: Gobel, Oregon via Joe Taggart, USGS, Denver, Colorado.
Description: The sample is composed of 1 cm diameter, pearly,
Measurement: Transmission
X Units: Wavelength (micrometers)
Y Units: Transmittance (percent)
wavelength	value
25.0442	37.7538
24.3388	36.9569
23.6719	34.7831
23.0407	29.4999
22.4422	21.7978
21.8741	21.3867
21.334	22.6074
20.8199	32.1601
20.33	43.244
19.8627	49.1561
19.4163	49.1156
18.9896	49.6249
18.5812	55.3143
18.19	56.1678
17.815	54.286
17.4551	51.4003
17.1094	48.1005
16.7772	43.6058
16.4576	44.8563
16.15	52.3592
15.8537	57.8128
15.568	60.2635
15.2925	59.9471
15.0265	57.9081
14.7697	58.9696
14.5214	61.0575
14.2814	61.0526
14.0492	59.7162
13.8244	59.1053
13.6067	60.4112
13.3957	63.1536
13.1912	65.9139
12.9929	67.1453
12.8004	66.8377
12.6135	68.0701
12.432	73.1534
12.2557	79.8846
12.0843	82.9073
11.9176	83.0869
11.7555	81.3633
11.5977	79.1023
11.444	76.8125
11.2944	74.7029
11.1487	72.6297
11.0067	70.0889
10.8682	66.7532
10.7332	61.2835
10.6015	52.4989
10.473	40.161
10.3476	26.8705
10.2251	16.6164
10.1056	10.4511
9.98873	7.2431
9.87458	5.8298
9.763	5.2993
9.65392	5.1206
9.54724	5.1057
9.44291	5.3371
9.34082	6.0715
9.24091	8.1997
9.14312	11.4084
9.04739	14.427
8.95363	16.8049
8.8618	18.4843
8.77183	19.7321
8.68368	20.9169
8.59727	22.2927
8.51257	23.6982
8.42951	24.31
8.34807	23.769
8.26819	26.2011
8.18981	36.6449
8.11292	48.8534
8.03745	57.2538
7.96337	62.7298
7.89064	66.5828
7.81924	69.5858
7.74911	71.9495
7.68023	73.8768
7.61256	75.3714
7.54608	76.5604
7.48074	77.8348
7.41653	78.8348
7.35341	79.677
7.29136	80.3929
7.23034	81.0027
7.17033	81.3846
7.11132	81.8953
7.05327	82.3382
6.99616	82.9192
6.93996	83.4275
6.88467	83.7967
6.83024	84.0686
6.77667	84.3916
6.72393	84.8264
6.67201	85.0598
6.62089	85.2849
6.57054	85.1887
6.52095	85.4641
6.4721	85.4143
6.42398	85.1648
6.37657	85.0296
6.32986	84.1858
6.28382	82.0037
6.23845	76.9759
6.19373	68.9446
6.14965	63.2286
6.10619	63.4603
6.06334	67.5421
6.02109	72.3296
5.97942	76.3697
5.93832	79.3536
5.89778	82.0098
5.8578	84.2537
5.81835	85.3069
5.77943	86.4114
5.74103	86.9798
5.70314	87.357
5.66574	87.7219
5.62883	87.9422
5.5924	88.2053
5.55644	88.364
5.52093	88.5706
5.48588	88.8274
5.45127	89.0486
5.41709	89.1565
5.38334	89.4417
5.35	89.4927
5.31708	89.7332
5.28456	89.8489
5.25243	89.9483
5.2207	90.0777
5.18934	90.1768
5.15836	90.2825
5.12775	90.3723
5.09749	90.4807
5.0676	90.5593
5.03805	90.677
5.00884	90.7561
4.97998	90.8052
4.95144	90.8982
4.92322	90.9692
4.89533	90.9785
4.86775	91.0505
4.84048	91.0317
4.81351	91.0515
4.78684	91.0811
4.76047	91.1172
4.73439	91.124
4.70859	91.1875
4.68306	91.2136
4.65782	91.2166
4.63284	91.2634
4.60814	91.3218
4.58369	91.396
4.5595	91.4006
4.53557	91.4619
4.51188	91.4822
4.48845	91.5735
4.46525	91.6355
4.44229	91.7136
4.41957	91.7913
4.39708	91.8623
4.37481	91.9739
4.35277	92.0588
4.33096	92.1148
4.30935	92.2034
4.28797	92.2918
4.26679	92.3804
4.24583	92.4688
4.22506	92.5574
4.2045	92.646
4.18414	92.7412
4.16398	92.8342
4.14401	92.9006
4.12423	92.9421
4.10464	93.0208
4.08523	93.084
4.066	93.135
4.04696	93.1819
4.02809	93.2148
4.0094	93.2402
3.99088	93.3049
3.97253	93.3496
3.95435	93.3919
3.93634	93.4099
3.91848	93.418
3.90079	93.4465
3.88326	93.4836
3.86589	93.4873
3.84867	93.4793
3.8316	93.4688
3.81468	93.4763
3.79791	93.4727
3.78129	93.459
3.76482	93.4053
3.74848	93.3645
3.73229	93.3816
3.71624	93.2971
3.70032	93.2708
3.68454	93.1858
3.6689	93.0938
3.65338	93.0574
3.638	92.9863
3.62275	92.8938
3.60762	92.8211
3.59262	92.7131
3.57775	92.6228
3.56299	92.4988
3.54836	92.3709
3.53385	92.242
3.51945	92.0671
3.50517	91.9639
3.49101	91.6543
3.47696	91.4539
3.46303	91.2656
3.4492	91.0518
3.43549	90.7842
3.42188	90.5401
3.40838	90.0369
3.39499	89.5789
3.38171	89.126
3.36852	88.7129
3.35544	88.2254
3.34246	87.7334
3.32958	87.2168
3.3168	86.6582
3.30411	85.9529
3.29153	85.3025
3.27903	84.4969
3.26664	83.6531
3.25433	82.7137
3.24212	81.7312
3.23	80.659
3.21797	79.531
3.20603	78.3577
3.19418	77.0848
3.18241	75.7767
3.17074	74.3816
3.15914	72.9139
3.14763	71.4007
3.13621	69.93
3.12487	68.4774
3.11361	67.201
3.10243	66.0892
3.09133	65.1649
3.0803	64.3953
3.06936	63.5975
3.0585	62.8084
3.04771	61.9505
3.037	61.0164
3.02636	60.0106
3.0158	58.9364
3.00531	57.6996
2.99489	56.4027
2.98454	55.1044
2.97427	53.8461
2.96407	52.6991
2.95393	51.8011
2.94387	51.0184
2.93387	50.5414
2.92394	50.2508
2.91408	50.1415
2.90429	50.2347
2.89456	50.4423
2.88489	50.7757
2.87529	51.0546
2.86576	51.3505
2.85628	51.6766
2.84687	52.0067
2.83752	52.3319
2.82823	52.6483
2.81901	52.9159
2.80984	53.2074
2.80073	53.2967
2.79168	53.3397
2.78269	53.2342
2.77376	53.2391
2.76488	53.9081
2.75606	55.6703
2.7473	59.161
2.73859	63.6566
2.72994	68.7547
2.72134	72.744
2.7128	75.9593
2.70431	78.1111
2.69587	79.6658
2.68748	80.8318
2.67915	81.5066
2.67087	81.9593
2.66264	82.7542
2.65446	83.2205
2.64633	83.5154
2.63825	83.8889
2.63021	83.885
2.62223	84.2517
2.6143	84.3181
2.60641	84.4568
2.59857	84.7986
2.59078	84.8963
2.58304	84.7561
2.57534	85.055
2.56768	85.074
2.56008	85.1678
2.55251	85.241
2.54499	85.4021
2.53752	85.4383
2.53009	85.4949
2.5227	85.6013
2.51536	85.6345
2.50806	85.6609
2.5008	85.7185
2.49358	85.7849
2.4864	85.9041
2.47927	85.9304
2.47218	85.9431
2.46512	86.0574
2.45811	86.0115
2.45114	86.0447
2.4442	86.0681
2.43731	86.1189
2.43045	86.3064
2.42363	86.325
2.41685	86.2703
2.41011	86.2556
2.40341	86.3601
2.39674	86.4412
2.39011	86.5291
2.38352	86.4851
2.37696	86.4783
2.37044	86.5525
2.36395	86.6424
2.35751	86.5486
2.35109	86.6804
2.34471	86.6463
2.33836	86.6804
2.33205	86.6482
2.32578	86.5701
2.31953	86.7634
2.31332	86.6619
2.30714	86.7244
2.301	86.6892
2.29489	86.6853
2.28881	86.699
2.28276	86.5857
2.27675	86.5896
2.27076	86.5467
2.26481	86.5906
2.25889	86.7195
2.253	86.6834
2.24714	86.6521
2.24131	86.6697
2.23551	86.6531
2.22974	86.614
2.224	86.6424
2.21829	86.7224
2.21261	86.5984
2.20696	86.4929
2.20134	86.6287
2.19574	86.614
2.19018	86.7547
2.18464	86.7
2.17913	86.4539
2.17365	86.5388
2.16819	86.4383
2.16277	86.6912
2.15737	86.6687
2.15199	86.6023
2.14665	86.5554
2.14133	86.6052
2.13603	86.5174
2.13077	86.4568
2.12552	86.5252
2.12031	86.4685
2.11512	86.4158
2.10995	86.4763
2.10481	86.4627
2.0997	86.5779
2.09461	86.6052
2.08954	86.5662
2.0845	86.4275
2.07948	86.408
