Name: Olivine (Fo60) (Fe+2,Mg)2SiO4
Type: Mineral
Class: Silicates
Subclass: Nesosilicates (Isolated tetrahedra); (Olivine Group)
Particle Size: Fine  (0-60 Micrometers)
Sample No.: olivine.6
Owner: JHU
Wavelength Range: IR
Origin: Kiglapait Intrusion, Labrador via Trude King #KI3189
Description: Initially, the specimen was contaminated with pyroxene,
Measurement: Bidirectional reflectance
X Units: Wavelength (micrometers)
Y Units: Reflectance (percent)
wavelength	value
25.0442	3.0749
24.3388	2.9553
23.6719	2.5859
23.0407	1.866
22.4422	1.7168
21.8741	1.6467
21.334	1.7012
20.8199	2.1152
20.33	2.3403
19.8627	2.2441
19.4163	2.5061
18.9896	2.7834
18.5812	2.9658
18.19	2.7778
17.815	2.062
17.4551	1.5676
17.1094	1.4915
16.7772	1.645
16.4576	1.8718
16.15	2.0605
15.8537	1.9036
15.568	1.5234
15.2925	1.4836
15.0265	1.6113
14.7697	1.8193
14.5214	1.9392
14.2814	2.0539
14.0492	2.2114
13.8244	2.2634
13.6067	2.3359
13.3957	2.3706
13.1912	2.3674
12.9929	2.321
12.8004	2.2351
12.6135	2.0891
12.432	1.9199
12.2557	1.7756
12.0843	1.7214
11.9176	1.5925
11.7555	1.7859
11.5977	2.094
11.444	2.614
11.2944	2.9805
11.1487	3.1702
11.0067	3.3865
10.8682	3.6401
10.7332	3.7956
10.6015	3.2632
10.473	2.4997
10.3476	2.9648
10.2251	3.0622
10.1056	2.9622
9.98873	2.8704
9.87458	2.7561
9.763	2.7495
9.65392	2.8547
9.54724	2.9529
9.44291	2.8345
9.34082	2.4299
9.24091	1.9209
9.14312	1.5933
9.04739	1.5579
8.95363	1.6196
8.8618	2.022
8.77183	2.3374
8.68368	2.5676
8.59727	2.7314
8.51257	2.9231
8.42951	3.092
8.34807	3.2417
8.26819	3.4392
8.18981	3.6413
8.11292	3.8183
8.03745	3.916
7.96337	3.9551
7.89064	3.9568
7.81924	3.9819
7.74911	3.977
7.68023	3.9431
7.61256	3.9558
7.54608	4.0359
7.48074	4.1394
7.41653	4.2512
7.35341	4.3271
7.29136	4.373
7.23034	4.4429
7.17033	4.4797
7.11132	4.5146
7.05327	4.6279
6.99616	4.6767
6.93996	4.6929
6.88467	4.6958
6.83024	4.7612
6.77667	4.8391
6.72393	4.8457
6.67201	4.8384
6.62089	4.8271
6.57054	4.8176
6.52095	4.7693
6.4721	4.7527
6.42398	4.7231
6.37657	4.676
6.32986	4.6291
6.28382	4.5769
6.23845	4.5434
6.19373	4.4975
6.14965	4.3691
6.10619	4.1538
6.06334	3.814
6.02109	3.6902
5.97942	3.7659
5.93832	3.8298
5.89778	3.8657
5.8578	3.9011
5.81835	3.9719
5.77943	3.9082
5.74103	3.7253
5.70314	3.52
5.66574	3.4434
5.62883	3.56
5.5924	3.6909
5.55644	3.7585
5.52093	3.7766
5.48588	3.8152
5.45127	3.9165
5.41709	4.0088
5.38334	4.0591
5.35	4.0903
5.31708	4.1235
5.28456	4.1804
5.25243	4.2737
5.2207	4.3713
5.18934	4.4495
5.15836	4.5085
5.12775	4.5486
5.09749	4.564
5.0676	4.5813
5.03805	4.5942
5.00884	4.6516
4.97998	4.7807
4.95144	4.9397
4.92322	5.0925
4.89533	5.2048
4.86775	5.2771
4.84048	5.3459
4.81351	5.3894
4.78684	5.4426
4.76047	5.4761
4.73439	5.5229
4.70859	5.5532
4.68306	5.5901
4.65782	5.635
4.63284	5.6872
4.60814	5.7331
4.58369	5.7764
4.5595	5.8188
4.53557	5.8562
4.51188	5.9035
4.48845	5.9443
4.46525	5.99
4.44229	6.0473
4.41957	6.0962
4.39708	6.1374
4.37481	6.1892
4.35277	6.2366
4.33096	6.2754
4.30935	6.3169
4.28797	6.364
4.26679	6.4201
4.24583	6.4692
4.22506	6.5073
4.2045	6.5613
4.18414	6.5989
4.16398	6.6496
4.14401	6.6797
4.12423	6.7202
4.10464	6.7607
4.08523	6.8032
4.066	6.8325
4.04696	6.8711
4.02809	6.906
4.0094	6.9563
3.99088	6.9885
3.97253	7.0346
3.95435	7.0681
3.93634	7.1067
3.91848	7.1467
3.90079	7.1765
3.88326	7.2075
3.86589	7.2368
3.84867	7.2573
3.8316	7.2846
3.81468	7.3179
3.79791	7.3508
3.78129	7.3894
3.76482	7.4082
3.74848	7.4458
3.73229	7.4692
3.71624	7.4912
3.70032	7.5097
3.68454	7.5342
3.6689	7.5461
3.65338	7.5693
3.638	7.6001
3.62275	7.6052
3.60762	7.6225
3.59262	7.6391
3.57775	7.6406
3.56299	7.6501
3.54836	7.6369
3.53385	7.6223
3.51945	7.5522
3.50517	7.3821
3.49101	7.4468
3.47696	7.4773
3.46303	7.4909
3.4492	7.4194
3.43549	7.3408
3.42188	7.1372
3.40838	7.1719
3.39499	7.3286
3.38171	7.3386
3.36852	7.3967
3.35544	7.5014
3.34246	7.5276
3.32958	7.5271
3.3168	7.5178
3.30411	7.478
3.29153	7.4717
3.27903	7.4548
3.26664	7.4245
3.25433	7.3935
3.24212	7.3608
3.23	7.3352
3.21797	7.3025
3.20603	7.2619
3.19418	7.2268
3.18241	7.1797
3.17074	7.1301
3.15914	7.0923
3.14763	7.0447
3.13621	6.9763
3.12487	6.9297
3.11361	6.8777
3.10243	6.834
3.09133	6.772
3.0803	6.7329
3.06936	6.6765
3.0585	6.6213
3.04771	6.5669
3.037	6.5078
3.02636	6.4494
3.0158	6.3923
3.00531	6.3533
2.99489	6.3132
2.98454	6.2895
2.97427	6.2837
2.96407	6.2881
2.95393	6.2817
2.94387	6.2951
2.93387	6.2949
2.92394	6.2873
2.91408	6.2583
2.90429	6.2378
2.89456	6.1636
2.88489	6.1152
2.87529	6.0273
2.86576	5.9651
2.85628	5.9121
2.84687	5.8664
2.83752	5.8406
2.82823	5.8423
2.81901	5.8533
2.80984	5.8491
2.80073	5.831
2.79168	5.7954
2.78269	5.791
2.77376	5.8005
2.76488	5.8157
2.75606	5.8706
2.7473	5.8957
2.73859	5.9614
2.72994	6.0498
2.72134	6.2434
2.7128	6.4394
2.70431	7.0913
2.69587	7.8083
2.68748	8.1914
2.67915	8.3803
2.67087	8.4897
2.66264	8.4768
2.65446	8.4917
2.64633	8.467
2.63825	8.4726
2.63021	8.5095
2.62223	8.4516
2.6143	8.4692
2.60641	8.4963
2.59857	8.4614
2.59078	8.4407
2.58304	8.4929
2.57534	8.4255
2.56768	8.3987
2.56008	8.4201
2.55251	8.3718
2.54499	8.3767
2.53752	8.3718
2.53009	8.354
2.5227	8.3423
2.51536	8.3323
2.50806	8.3015
2.5008	8.3152
2.49358	8.3135
2.4864	8.281
2.47927	8.2961
2.47218	8.2702
2.46512	8.26
2.45811	8.2436
2.45114	8.2395
2.4442	8.2556
2.43731	8.2429
2.43045	8.2278
2.42363	8.2138
2.41685	8.218
2.41011	8.2107
2.40341	8.208
2.39674	8.1858
2.39011	8.1609
2.38352	8.1623
2.37696	8.166
2.37044	8.1445
2.36395	8.1301
2.35751	8.1355
2.35109	8.1511
2.34471	8.1164
2.33836	8.126
2.33205	8.1272
2.32578	8.1301
2.31953	8.1465
2.31332	8.1264
2.30714	8.1272
2.301	8.1074
2.29489	8.1235
2.28881	8.1177
2.28276	8.1452
2.27675	8.1457
2.27076	8.175
2.26481	8.1467
2.25889	8.1448
2.253	8.1513
2.24714	8.1421
2.24131	8.1621
2.23551	8.1137
2.22974	8.1587
2.224	8.126
2.21829	8.1518
2.21261	8.1416
2.20696	8.1235
2.20134	8.1245
2.19574	8.1565
2.19018	8.1548
2.18464	8.1626
2.17913	8.1907
2.17365	8.167
2.16819	8.1521
2.16277	8.1755
2.15737	8.1836
2.15199	8.1457
2.14665	8.1765
2.14133	8.1824
2.13603	8.2412
2.13077	8.2114
2.12552	8.2241
2.12031	8.2356
2.11512	8.217
2.10995	8.2178
2.10481	8.2121
2.0997	8.206
2.09461	8.2546
2.08954	8.2886
2.0845	8.2497
2.07948	8.2788
