Name: Alunite (potassium alunite) KAl3(SO4)2(OH)6
Type: Mineral
Class: Sulfates
Particle Size: Fine (less than 2 Micrometers)
Sample No.: alunite.2
Owner: JHU
Wavelength Range: IR
Origin: Utah; Hunt and Salisbury Collection  sample #295 B
Description: The sample is slightly pink in color, and appears pure
Measurement: Transmission
X Units: Wavelength (micrometers)
Y Units: Transmittance (percent)
wavelength	value
25.0442	69.4451
24.3388	65.0467
23.6719	57.8397
23.0407	55.3592
22.4422	62.7909
21.8741	66.7518
21.334	66.8514
20.8199	65.91
20.33	64.3534
19.8627	63.118
19.4163	60.3758
18.9896	53.7518
18.5812	61.5155
18.19	60.1883
17.815	55.2508
17.4551	49.8524
17.1094	40.7626
16.7772	26.9062
16.4576	37.6308
16.15	35.5907
15.8537	32.3984
15.568	41.4745
15.2925	57.5877
15.0265	43.2909
14.7697	35.4648
14.5214	37.0556
14.2814	42.9315
14.0492	51.3299
13.8244	61.6331
13.6067	67.783
13.3957	72.2537
13.1912	75.7361
12.9929	78.5389
12.8004	80.6741
12.6135	82.9241
12.432	84.3172
12.2557	85.51
12.0843	86.3284
11.9176	86.7327
11.7555	86.8455
11.5977	86.2444
11.444	85.8655
11.2944	85.2053
11.1487	84.0823
11.0067	82.0974
10.8682	80.2342
10.7332	77.8772
10.6015	74.2435
10.473	69.8592
10.3476	65.0487
10.2251	60.0951
10.1056	56.2191
9.98873	53.4813
9.87458	50.3387
9.763	40.4364
9.65392	48.4515
9.54724	44.3646
9.44291	36.9667
9.34082	25.8486
9.24091	17.7959
9.14312	24.6201
9.04739	31.9706
8.95363	38.9745
8.8618	45.4867
8.77183	50.6317
8.68368	54.1039
8.59727	53.4999
8.51257	57.6229
8.42951	58.1729
8.34807	57.704
8.26819	55.3116
8.18981	52.8038
8.11292	52.6561
8.03745	54.1205
7.96337	58.1583
7.89064	64.3905
7.81924	69.3875
7.74911	72.8301
7.68023	75.0462
7.61256	76.7315
7.54608	78.1661
7.48074	79.2969
7.41653	80.3096
7.35341	81.1892
7.29136	81.8474
7.23034	82.1516
7.17033	83.1934
7.11132	83.6687
7.05327	83.6961
6.99616	84.0642
6.93996	84.6287
6.88467	85.251
6.83024	85.5623
6.77667	85.8819
6.72393	86.1873
6.67201	86.7598
6.62089	87.1551
6.57054	87.6768
6.52095	88.0459
6.4721	88.5369
6.42398	89.0061
6.37657	89.1922
6.32986	89.3623
6.28382	89.5303
6.23845	89.6377
6.19373	89.4656
6.14965	88.8819
6.10619	88.6624
6.06334	89.0479
6.02109	89.9846
5.97942	91.0947
5.93832	91.1707
5.89778	91.3298
5.8578	91.9363
5.81835	92.5925
5.77943	92.9793
5.74103	93.3857
5.70314	93.6543
5.66574	93.8767
5.62883	94.0723
5.5924	94.2656
5.55644	94.3965
5.52093	94.584
5.48588	94.7683
5.45127	95.0408
5.41709	95.3408
5.38334	95.3611
5.35	95.5359
5.31708	95.7039
5.28456	95.7725
5.25243	95.9382
5.2207	96.0947
5.18934	96.2031
5.15836	96.3047
5.12775	96.4197
5.09749	96.498
5.0676	96.5518
5.03805	96.6843
5.00884	96.7659
4.97998	96.8728
4.95144	96.9109
4.92322	96.9416
4.89533	96.9089
4.86775	96.8689
4.84048	96.7527
4.81351	96.9382
4.78684	96.8069
4.76047	95.8611
4.73439	94.3787
4.70859	94.3982
4.68306	94.74
4.65782	95.0046
4.63284	94.3455
4.60814	93.696
4.58369	93.1189
4.5595	93.8669
4.53557	94.0584
4.51188	94.074
4.48845	94.0808
4.46525	94.5007
4.44229	94.6213
4.41957	94.8596
4.39708	94.9573
4.37481	94.7312
4.35277	94.7468
4.33096	95.1687
4.30935	95.7068
4.28797	95.9924
4.26679	96.0144
4.24583	96.2151
4.22506	96.3752
4.2045	96.4768
4.18414	96.5124
4.16398	96.5115
4.14401	96.4968
4.12423	96.5115
4.10464	96.573
4.08523	96.6218
4.066	96.6404
4.04696	96.6501
4.02809	96.6384
4.0094	96.6858
3.99088	96.635
3.97253	96.5745
3.95435	96.6931
3.93634	96.6448
3.91848	96.6956
3.90079	96.6624
3.88326	96.5554
3.86589	96.4148
3.84867	96.5544
3.8316	96.5212
3.81468	96.4109
3.79791	96.3538
3.78129	96.283
3.76482	96.1589
3.74848	96.0041
3.73229	95.9841
3.71624	95.8083
3.70032	95.5666
3.68454	95.4802
3.6689	95.282
3.65338	95.1877
3.638	95.0334
3.62275	94.8108
3.60762	94.6277
3.59262	94.3909
3.57775	94.2483
3.56299	94.0408
3.54836	93.8225
3.53385	93.5139
3.51945	93.2888
3.50517	92.9802
3.49101	92.7224
3.47696	92.4861
3.46303	92.2952
3.4492	92.0725
3.43549	91.7639
3.42188	91.3342
3.40838	91.0857
3.39499	90.9666
3.38171	90.7893
3.36852	90.7537
3.35544	90.344
3.34246	90.157
3.32958	89.8928
3.3168	89.6331
3.30411	89.5134
3.29153	89.2595
3.27903	88.9656
3.26664	88.7556
3.25433	88.5159
3.24212	88.3772
3.23	88.1638
3.21797	87.9885
3.20603	87.7171
3.19418	87.5193
3.18241	87.2361
3.17074	86.9314
3.15914	86.5808
3.14763	86.3064
3.13621	85.8201
3.12487	85.575
3.11361	85.3494
3.10243	84.7703
3.09133	83.9812
3.0803	83.6883
3.06936	83.3221
3.0585	82.9002
3.04771	82.7049
3.037	82.1736
3.02636	81.5349
3.0158	80.6463
3.00531	80.0017
2.99489	78.8865
2.98454	77.365
2.97427	75.8338
2.96407	74.4139
2.95393	72.6619
2.94387	71.0193
2.93387	69.743
2.92394	67.6922
2.91408	64.2342
2.90429	61.3202
2.89456	54.9003
2.88489	45.8876
2.87529	31.9491
2.86576	26.6386
2.85628	39.5722
2.84687	37.4823
2.83752	48.8837
2.82823	59.7831
2.81901	65.9539
2.80984	70.0135
2.80073	72.9422
2.79168	75.3865
2.78269	77.6678
2.77376	79.3211
2.76488	81.3172
2.75606	83.1619
2.7473	84.1804
2.73859	84.9998
2.72994	85.1482
2.72134	84.3562
2.7128	85.6804
2.70431	88.2429
2.69587	90.4695
2.68748	91.5046
2.67915	92.0046
2.67087	92.4841
2.66264	92.5945
2.65446	92.7898
2.64633	92.8679
2.63825	93.1414
2.63021	93.2625
2.62223	93.1189
2.6143	93.2898
2.60641	93.4929
2.59857	93.3357
2.59078	93.2576
2.58304	93.5632
2.57534	93.406
2.56768	93.2322
2.56008	93.4236
2.55251	93.4431
2.54499	93.2361
2.53752	93.4216
2.53009	93.1502
2.5227	92.9314
2.51536	92.7322
2.50806	92.6189
2.5008	93.0662
2.49358	93.0115
2.4864	93.1853
2.47927	93.1951
2.47218	92.988
2.46512	92.8962
2.45811	93.0447
2.45114	92.9568
2.4442	92.9294
2.43731	92.9138
2.43045	92.8142
2.42363	92.8084
2.41685	93.0154
2.41011	93.0584
2.40341	92.906
2.39674	92.863
2.39011	92.9529
2.38352	93.1052
2.37696	92.8787
2.37044	92.9607
2.36395	92.9861
2.35751	92.9314
2.35109	92.7498
2.34471	92.9548
2.33836	92.5974
2.33205	92.5408
2.32578	92.4627
2.31953	92.6345
2.31332	92.6326
2.30714	92.5095
2.301	92.6423
2.29489	92.7986
2.28881	92.6873
2.28276	92.9841
2.27675	92.6658
2.27076	92.6658
2.26481	92.7127
2.25889	92.8591
2.253	93.156
2.24714	92.6482
2.24131	92.4998
2.23551	92.7263
2.22974	92.7732
2.224	92.2341
2.21829	92.9216
2.21261	92.8669
2.20696	92.3298
2.20134	92.3826
2.19574	92.7517
2.19018	92.4373
2.18464	92.781
2.17913	92.0466
2.17365	92.6951
2.16819	92.5818
2.16277	92.5545
2.15737	92.2263
2.15199	92.656
2.14665	92.7029
2.14133	92.488
2.13603	92.8318
2.13077	93.3435
2.12552	92.906
2.12031	92.8357
2.11512	92.9373
2.10995	93.3318
2.10481	92.9998
2.0997	93.4685
2.09461	93.7263
2.08954	93.4021
2.0845	93.6638
2.07948	93.5037
