Name: Antigorite (Mg, Fe+2)3 Si2O5(OH)4
Type: Mineral
Class: Silicates
Subclass: Phyllosilicates  (Sheet silicates) (Serpentine/Kaolin Group)
Particle Size: Fine (less than 2 Micrometers)
Sample No.: antigorite.1
Owner: JHU.
Wavelength Range: IR
Origin: Sample from Kalsertal, Tyrol, Austria, via the Smithsonian
Description: The sample was a large green single crystal.  It appeared
Measurement: Transmission
X Units: Wavelength (micrometers)
Y Units: Transmittance (percent)
wavelength	value
25.044	59.4608
24.339	59.1795
23.672	58.0428
23.041	45.6815
22.442	36.33
21.874	35.869
21.334	42.2147
20.82	49.576
20.33	55.5018
19.863	58.4256
19.416	61.2547
18.99	62.8368
18.581	62.451
18.19	60.6815
17.815	58.328
17.455	61.0799
17.109	65.1131
16.777	65.6414
16.458	62.1844
16.15	58.2791
15.854	58.0702
15.568	58.8153
15.292	62.4412
15.027	67.2069
14.77	71.701
14.521	75.075
14.281	77.5975
14.049	79.0535
13.824	80.469
13.607	81.4705
13.396	82.4593
13.191	83.0662
12.993	83.3225
12.8	83.3846
12.614	84.3513
12.432	84.5095
12.256	84.5135
12.084	83.9104
11.918	82.7625
11.755	81.7224
11.598	80.4021
11.444	79.8753
11.294	79.5628
11.149	77.8689
11.007	74.4241
10.868	70.8245
10.733	66.0213
10.602	57.6605
10.473	47.0214
10.348	38.5233
10.225	32.1737
10.106	29.3544
9.989	31.5195
9.875	35.7035
9.763	40.5766
9.654	45.5487
9.547	48.1952
9.443	47.3221
9.341	47.0106
9.241	50.7411
9.143	59.3895
9.047	69.5545
8.954	74.5691
8.862	77.8455
8.772	80.8875
8.684	83.3699
8.597	85.3606
8.513	86.6487
8.43	87.9317
8.348	88.7442
8.268	89.6297
8.19	90.7412
8.113	91.4219
8.037	91.8821
7.963	92.3447
7.891	92.5899
7.819	92.7488
7.749	92.9385
7.68	93.0098
7.613	93.167
7.546	93.2566
7.481	93.2263
7.417	93.1541
7.353	93.0574
7.291	92.9004
7.23	92.4939
7.17	92.5593
7.111	92.1956
7.053	91.4922
6.996	91.502
6.94	91.7117
6.885	91.8728
6.83	91.8818
6.777	92.0684
6.724	92.1072
6.672	92.1729
6.621	92.1433
6.571	92.1296
6.521	92.0938
6.472	92.415
6.424	92.6638
6.377	92.7195
6.33	92.761
6.284	92.6377
6.238	92.3059
6.194	91.5252
6.15	90.5508
6.106	90.4736
6.063	91.0945
6.021	92.5176
5.979	94.0779
5.938	94.0566
5.898	94.0938
5.858	94.3337
5.818	94.7471
5.779	94.9421
5.741	95.0645
5.703	95.1404
5.666	95.1804
5.629	95.0759
5.592	95.0723
5.556	95.072
5.521	95.166
5.486	95.2715
5.451	95.3594
5.417	95.3535
5.383	95.136
5.35	95.1104
5.317	95.1816
5.285	95.2588
5.252	95.3748
5.221	95.5837
5.189	95.6296
5.158	95.658
5.128	95.6201
5.097	95.6316
5.068	95.5547
5.038	95.5801
5.009	95.6179
4.98	95.6794
4.951	95.7493
4.923	95.7878
4.895	95.8591
4.868	95.9529
4.84	96.0305
4.814	96.0417
4.787	96.0999
4.76	96.1213
4.734	96.1755
4.709	96.218
4.683	96.2527
4.658	96.2859
4.633	96.2859
4.608	96.4753
4.584	96.4158
4.56	96.2756
4.536	96.2971
4.512	96.2888
4.488	96.2541
4.465	96.2385
4.442	96.2458
4.42	96.1946
4.397	96.2048
4.375	96.2048
4.353	96.1389
4.331	96.1316
4.309	96.0691
4.288	96.0559
4.267	96.033
4.246	96.0139
4.225	95.9866
4.205	95.9963
4.184	96.0374
4.164	96.0242
4.144	95.9929
4.124	95.9597
4.105	95.9495
4.085	95.9631
4.066	95.9827
4.047	95.9553
4.028	95.9529
4.009	95.926
3.991	95.8738
3.973	95.8289
3.954	95.8948
3.936	95.9343
3.918	95.8791
3.901	95.8562
3.883	95.8181
3.866	95.6589
3.849	95.6838
3.832	95.6213
3.815	95.5896
3.798	95.5237
3.781	95.4919
3.765	95.3284
3.748	95.3093
3.732	95.2419
3.716	95.0984
3.7	95.0408
3.685	94.9319
3.669	94.7913
3.653	94.7932
3.638	94.6638
3.623	94.5554
3.608	94.5212
3.593	94.3943
3.578	94.342
3.563	94.2092
3.548	94.1443
3.534	94.0642
3.519	93.9773
3.505	93.8826
3.491	93.7205
3.477	93.6467
3.463	93.6101
3.449	93.5447
3.435	93.4221
3.422	93.2639
3.408	93.031
3.395	93.0271
3.382	92.9592
3.369	92.989
3.355	92.865
3.342	92.7385
3.33	92.6502
3.317	92.5471
3.304	92.5159
3.292	92.344
3.279	92.1311
3.267	92.0427
3.254	91.9202
3.242	91.8342
3.23	91.6643
3.218	91.5276
3.206	91.385
3.194	91.2361
3.182	91.0115
3.171	90.7449
3.159	90.4568
3.148	90.24
3.136	89.9265
3.125	89.7107
3.114	89.3416
3.102	88.8533
3.091	88.3504
3.08	88.0086
3.069	87.5691
3.058	87.1951
3.048	86.8064
3.037	86.4988
3.026	86.1062
3.016	85.4802
3.005	84.865
2.995	84.0574
2.985	83.1687
2.974	82.1814
2.964	81.282
2.954	80.4236
2.944	79.66
2.934	78.9412
2.924	78.5613
2.914	78.2771
2.904	78.2703
2.895	78.3396
2.885	78.4432
2.875	78.4568
2.866	78.4939
2.856	78.6717
2.847	78.9002
2.838	79.1424
2.828	79.4617
2.819	79.7713
2.81	79.9344
2.801	80.2361
2.792	80.6775
2.783	81.3162
2.774	81.8474
2.765	82.0701
2.756	81.8553
2.747	80.4734
2.739	78.8299
2.73	74.867
2.721	67.2664
2.713	72.7342
2.704	81.906
2.696	89.6423
2.687	92.3806
2.679	93.3552
2.671	93.9216
2.663	93.9255
2.654	94.2664
2.646	94.2263
2.638	94.2302
2.63	94.2927
2.622	94.2351
2.614	94.2507
2.606	94.3484
2.599	94.1013
2.591	94.3044
2.583	94.199
2.575	94.1697
2.568	94.0095
2.56	94.115
2.553	93.9529
2.545	93.9236
2.538	94.072
2.53	94.1033
2.523	93.7986
2.515	93.8611
2.508	93.8279
2.501	93.8572
2.494	93.7654
2.486	93.7439
2.479	93.7908
2.472	93.7615
2.465	93.533
2.458	93.699
2.451	93.5818
2.444	93.4705
2.437	93.5623
2.43	93.5877
2.424	93.5623
2.417	93.5388
2.41	93.5466
2.403	93.4158
2.397	93.2966
2.39	93.4216
2.384	93.3533
2.377	93.2127
2.37	93.3748
2.364	93.3377
2.358	93.1716
2.351	93.2595
2.345	93.1677
2.338	93.0076
2.332	93.0642
2.326	93.1834
2.32	93.2439
2.313	93.1013
2.307	92.9021
2.301	92.9705
2.295	93.2185
2.289	93.072
2.283	93.1443
2.277	93.1033
2.271	93.1111
2.265	93.3591
2.259	93.1951
2.253	93.5232
2.247	93.2615
2.241	93.3904
2.236	93.2029
2.23	93.572
2.224	93.408
2.218	93.4314
2.213	93.5408
2.207	93.2498
2.201	93.4763
2.196	93.5095
2.19	93.6169
2.185	93.5037
2.179	93.363
2.174	93.5466
2.168	93.9919
2.163	93.9959
2.157	93.6755
2.152	93.4529
2.147	93.4529
2.141	93.4177
2.136	93.7927
2.131	94.1482
2.126	94.0271
2.12	94.1873
2.115	93.7966
2.11	93.9177
2.105	93.9216
2.1	94.1365
2.095	94.4919
2.09	94.7498
2.085	94.0623
2.079	94.5349
