Name: Vermiculite (Mg,Fe+2,Al)3(Al,Si)4O10(OH)2.4H2O
Type: Mineral
Class: Silicates
Subclass: Phyllosilicates (Sheet Silicates); (Vermiculite Group)
Particle Size: 0-2 micrometers.  (Packed powder simulates coarse.)
Sample No.: vermicul.1
Owner: JHU
Wavelength Range: IR
Origin: Llano, Texas via Norma Vergo #VTx-1 (CMS) (purchased from
Description: White, earthy clay.  XRD analysis indicates pure vermiculite for the
Measurement: Bidirectional reflectance
X Units: Wavelength (micrometers)
Y Units: Reflectance (percent)
wavelength	value
25.0442	17.5244
24.3388	18.0742
23.6719	19.4394
23.0407	21.5051
22.4422	23.7814
21.8741	26.2892
21.334	30.6337
20.8199	31.5624
20.33	29.3366
19.8627	29.4213
19.4163	29.0199
18.9896	25.8051
18.5812	21.2302
18.19	16.976
17.815	13.6137
17.4551	11.0268
17.1094	9.3471
16.7772	8.7153
16.4576	8.8821
16.15	9.3703
15.8537	9.9741
15.568	10.8252
15.2925	11.7407
15.0265	12.4262
14.7697	11.9533
14.5214	10.8962
14.2814	9.8095
14.0492	8.8625
13.8244	8.5105
13.6067	8.143
13.3957	7.6135
13.1912	7.4287
12.9929	7.3486
12.8004	7.3955
12.6135	7.6225
12.432	7.9826
12.2557	8.3059
12.0843	8.3066
11.9176	8.1826
11.7555	8.6252
11.5977	9.2934
11.444	9.8977
11.2944	10.666
11.1487	11.4885
11.0067	11.9389
10.8682	12.1609
10.7332	12.5429
10.6015	13.2854
10.473	14.5051
10.3476	16.2961
10.2251	18.5268
10.1056	21.1225
9.98873	23.7726
9.87458	25.1125
9.763	23.706
9.65392	21.6027
9.54724	20.0917
9.44291	18.8388
9.34082	17.6694
9.24091	16.7741
9.14312	15.9963
9.04739	15.1591
8.95363	14.5205
8.8618	12.102
8.77183	8.3066
8.68368	4.8367
8.59727	3.2422
8.51257	3.0337
8.42951	3.2263
8.34807	3.5017
8.26819	3.7502
8.18981	3.9844
8.11292	4.2158
8.03745	4.4172
7.96337	4.614
7.89064	4.7954
7.81924	4.9914
7.74911	5.1426
7.68023	5.3015
7.61256	5.4375
7.54608	5.5539
7.48074	5.6601
7.41653	5.7585
7.35341	5.8577
7.29136	5.9353
7.23034	6.0122
7.17033	6.0791
7.11132	6.135
7.05327	6.1926
6.99616	6.2493
6.93996	6.2966
6.88467	6.3315
6.83024	6.3974
6.77667	6.4643
6.72393	6.4966
6.67201	6.5185
6.62089	6.5307
6.57054	6.5176
6.52095	6.5012
6.4721	6.4441
6.42398	6.3782
6.37657	6.3003
6.32986	6.217
6.28382	6.1015
6.23845	5.9719
6.19373	5.8061
6.14965	5.6907
6.10619	5.581
6.06334	5.4844
6.02109	5.3823
5.97942	5.2649
5.93832	5.2119
5.89778	5.3066
5.8578	5.5527
5.81835	5.8572
5.77943	6.2554
5.74103	6.6035
5.70314	6.8674
5.66574	7.0754
5.62883	7.2488
5.5924	7.4106
5.55644	7.5556
5.52093	7.6804
5.48588	7.7942
5.45127	7.9055
5.41709	8.0012
5.38334	8.1116
5.35	8.2361
5.31708	8.3598
5.28456	8.4629
5.25243	8.529
5.2207	8.5554
5.18934	8.5796
5.15836	8.5776
5.12775	8.5825
5.09749	8.5986
5.0676	8.5991
5.03805	8.5932
5.00884	8.5647
4.97998	8.5254
4.95144	8.4917
4.92322	8.4856
4.89533	8.4978
4.86775	8.5149
4.84048	8.5158
4.81351	8.5183
4.78684	8.5051
4.76047	8.5032
4.73439	8.498
4.70859	8.4795
4.68306	8.4714
4.65782	8.4682
4.63284	8.458
4.60814	8.4436
4.58369	8.417
4.5595	8.3955
4.53557	8.3711
4.51188	8.3354
4.48845	8.3059
4.46525	8.2663
4.44229	8.2231
4.41957	8.1911
4.39708	8.1709
4.37481	8.1548
4.35277	8.145
4.33096	8.1394
4.30935	8.1304
4.28797	8.1452
4.26679	8.164
4.24583	8.1914
4.22506	8.2309
4.2045	8.2715
4.18414	8.3242
4.16398	8.375
4.14401	8.4172
4.12423	8.4739
4.10464	8.5427
4.08523	8.6145
4.066	8.6858
4.04696	8.7617
4.02809	8.8408
4.0094	8.9131
3.99088	8.9831
3.97253	9.0454
3.95435	9.1054
3.93634	9.1567
3.91848	9.2114
3.90079	9.24
3.88326	9.2558
3.86589	9.2724
3.84867	9.2722
3.8316	9.251
3.81468	9.2285
3.79791	9.2043
3.78129	9.167
3.76482	9.1338
3.74848	9.0698
3.73229	8.9988
3.71624	8.8969
3.70032	8.8005
3.68454	8.7082
3.6689	8.5996
3.65338	8.4748
3.638	8.341
3.62275	8.2029
3.60762	8.0674
3.59262	7.927
3.57775	7.7768
3.56299	7.646
3.54836	7.4978
3.53385	7.3474
3.51945	7.2178
3.50517	7.1172
3.49101	7.011
3.47696	6.8801
3.46303	6.7329
3.4492	6.6113
3.43549	6.4682
3.42188	6.3594
3.40838	6.2478
3.39499	6.1313
3.38171	6.0232
3.36852	5.9463
3.35544	5.8164
3.34246	5.7056
3.32958	5.6098
3.3168	5.5342
3.30411	5.4602
3.29153	5.3952
3.27903	5.3386
3.26664	5.2847
3.25433	5.2312
3.24212	5.1958
3.23	5.1509
3.21797	5.1208
3.20603	5.0825
3.19418	5.0464
3.18241	5.012
3.17074	4.9709
3.15914	4.9429
3.14763	4.928
3.13621	4.9011
3.12487	4.8586
3.11361	4.8257
3.10243	4.7866
3.09133	4.7817
3.0803	4.749
3.06936	4.7297
3.0585	4.6999
3.04771	4.6955
3.037	4.6804
3.02636	4.6772
3.0158	4.6426
3.00531	4.6086
2.99489	4.6025
2.98454	4.5903
2.97427	4.5781
2.96407	4.5293
2.95393	4.522
2.94387	4.5107
2.93387	4.4849
2.92394	4.4751
2.91408	4.4392
2.90429	4.4272
2.89456	4.4219
2.88489	4.3896
2.87529	4.4009
2.86576	4.3808
2.85628	4.3496
2.84687	4.3437
2.83752	4.3164
2.82823	4.3052
2.81901	4.2778
2.80984	4.269
2.80073	4.2605
2.79168	4.2461
2.78269	4.2744
2.77376	4.3335
2.76488	4.4311
2.75606	4.564
2.7473	4.7876
2.73859	5.1294
2.72994	5.4736
2.72134	5.5539
2.7128	6.0246
2.70431	6.9026
2.69587	7.4736
2.68748	7.8725
2.67915	8.1999
2.67087	8.4616
2.66264	8.6428
2.65446	8.7929
2.64633	8.9502
2.63825	9.0644
2.63021	9.1721
2.62223	9.2573
2.6143	9.302
2.60641	9.3652
2.59857	9.3733
2.59078	9.4477
2.58304	9.458
2.57534	9.4717
2.56768	9.509
2.56008	9.5019
2.55251	9.4905
2.54499	9.4887
2.53752	9.4956
2.53009	9.4956
2.5227	9.4963
2.51536	9.5022
2.50806	9.5237
2.5008	9.5744
2.49358	9.605
2.4864	9.6662
2.47927	9.728
2.47218	9.7824
2.46512	9.8144
2.45811	9.9463
2.45114	10.084
2.4442	10.1294
2.43731	10.1831
2.43045	10.2295
2.42363	10.2922
2.41685	10.3384
2.41011	10.29
2.40341	10.2285
2.39674	10.176
2.39011	10.2864
2.38352	10.4953
2.37696	10.6484
2.37044	10.8254
2.36395	10.9365
2.35751	10.9297
2.35109	10.9726
2.34471	10.9658
2.33836	10.7812
2.33205	10.5224
2.32578	10.4756
2.31953	10.5561
2.31332	10.749
2.30714	10.9394
2.301	11.0171
2.29489	11.1069
2.28881	11.4287
2.28276	11.8559
2.27675	12.2216
2.27076	12.4018
2.26481	12.5
2.25889	12.5083
2.253	12.1919
2.24714	11.8222
2.24131	12.1123
2.23551	12.6738
2.22974	12.9077
2.224	12.9716
2.21829	13.0332
2.21261	13.0136
2.20696	12.9961
2.20134	12.997
2.19574	12.9912
2.19018	13.0195
2.18464	13.0088
2.17913	12.998
2.17365	13.0136
2.16819	12.916
2.16277	12.9555
2.15737	12.9404
2.15199	12.9453
2.14665	12.9082
2.14133	12.895
2.13603	12.8769
2.13077	12.8457
2.12552	12.8213
2.12031	12.7734
2.11512	12.8418
2.10995	12.7758
2.10481	12.75
2.0997	12.7387
2.09461	12.7465
2.08954	12.768
2.0845	12.7036
2.07948	12.7036
