Name: Lizardite Mg3Si2O5(OH)4
Type: Mineral
Class: Silicates
Subclass: Phyllosilicates (Sheet Silicates); (Serpentine/Kaoline Group)
Particle Size: Fine  (Less than 2 micrometers)
Sample No.: lizard.1
Owner: JHU
Wavelength Range: IR
Origin: Austria via the Smithsonian (sample no. NMNH R4687),
Description: Sample was a small amount of fine white powder.  Only
Measurement: Transmission
X Units: Wavelength (micrometers)
Y Units: Transmittance (percent)
wavelength	value
25.0442	43.8827
24.3388	37.1718
23.6719	29.7655
23.0407	16.0644
22.4422	14.9472
21.8741	22.9921
21.334	30.1093
20.8199	37.371
20.33	43.5175
19.8627	51.201
19.4163	60.4735
18.9896	63.2069
18.5812	58.243
18.19	50.9579
17.815	43.7431
17.4551	41.0751
17.1094	41.414
16.7772	42.454
16.4576	34.9667
16.15	33.0546
15.8537	36.5595
15.568	41.9765
15.2925	49.0585
15.0265	59.4481
14.7697	66.908
14.5214	70.2254
14.2814	74.7908
14.0492	77.1102
13.8244	79.594
13.6067	82.0511
13.3957	84.1228
13.1912	85.5218
12.9929	86.4905
12.8004	87.117
12.6135	87.7049
12.432	87.7327
12.2557	87.6248
12.0843	87.9514
11.9176	87.4885
11.7555	86.7932
11.5977	85.5818
11.444	83.4949
11.2944	80.4143
11.1487	74.9793
11.0067	63.411
10.8682	45.8221
10.7332	26.2265
10.6015	16.6294
10.473	13.5708
10.3476	15.1801
10.2251	17.3837
10.1056	21.0322
9.98873	26.2841
9.87458	34.079
9.763	42.0722
9.65392	46.7421
9.54724	44.9398
9.44291	40.5575
9.34082	36.7553
9.24091	34.1293
9.14312	40.6254
9.04739	57.266
8.95363	70.3836
8.8618	76.0398
8.77183	79.2776
8.68368	81.5974
8.59727	83.3352
8.51257	84.9519
8.42951	86.2703
8.34807	87.364
8.26819	88.2559
8.18981	89.0274
8.11292	89.6668
8.03745	90.1377
7.96337	90.501
7.89064	90.9714
7.81924	91.3281
7.74911	91.4441
7.68023	91.5527
7.61256	91.6604
7.54608	91.864
7.48074	91.999
7.41653	92.1594
7.35341	92.1033
7.29136	92.0432
7.23034	92.0147
7.17033	91.905
7.11132	91.5225
7.05327	91.0713
6.99616	90.4356
6.93996	89.9529
6.88467	89.8416
6.83024	90.0979
6.77667	90.5403
6.72393	91.0505
6.67201	91.5242
6.62089	92.0391
6.57054	92.4089
6.52095	92.4607
6.4721	92.4568
6.42398	92.4558
6.37657	92.2781
6.32986	91.9685
6.28382	91.6025
6.23845	91.2351
6.19373	90.8604
6.14965	90.2068
6.10619	90.499
6.06334	90.6231
6.02109	90.4773
5.97942	91.0046
5.93832	92.0823
5.89778	93.1492
5.8578	93.8135
5.81835	94.2966
5.77943	94.5147
5.74103	94.7795
5.70314	94.9275
5.66574	95.0859
5.62883	95.1885
5.5924	95.248
5.55644	95.3408
5.52093	95.3782
5.48588	95.4617
5.45127	95.5498
5.41709	95.6931
5.38334	95.6951
5.35	95.7976
5.31708	95.9109
5.28456	96.0166
5.25243	96.1072
5.2207	96.1599
5.18934	96.1807
5.15836	96.21
5.12775	96.2529
5.09749	96.2522
5.0676	96.2227
5.03805	96.2146
5.00884	96.2673
4.97998	96.301
4.95144	96.3679
4.92322	96.3679
4.89533	96.3987
4.86775	96.3987
4.84048	96.4197
4.81351	96.5227
4.78684	96.5173
4.76047	96.5173
4.73439	96.5471
4.70859	96.5354
4.68306	96.5613
4.65782	96.6013
4.63284	96.6755
4.60814	96.6892
4.58369	96.6487
4.5595	96.7424
4.53557	96.6956
4.51188	96.6575
4.48845	96.6746
4.46525	96.6057
4.44229	96.6233
4.41957	96.5955
4.39708	96.5842
4.37481	96.5652
4.35277	96.551
4.33096	96.6267
4.30935	96.5901
4.28797	96.5964
4.26679	96.5837
4.24583	96.5994
4.22506	96.5837
4.2045	96.5881
4.18414	96.5803
4.16398	96.6208
4.14401	96.531
4.12423	96.5784
4.10464	96.6121
4.08523	96.5398
4.066	96.6199
4.04696	96.5945
4.02809	96.5798
4.0094	96.5867
3.99088	96.5085
3.97253	96.5374
3.95435	96.5374
3.93634	96.5022
3.91848	96.5828
3.90079	96.4631
3.88326	96.5544
3.86589	96.3455
3.84867	96.4167
3.8316	96.3933
3.81468	96.3494
3.79791	96.3044
3.78129	96.323
3.76482	96.2502
3.74848	96.1531
3.73229	96.1199
3.71624	96.0159
3.70032	95.9612
3.68454	95.9451
3.6689	95.8972
3.65338	95.8513
3.638	95.7795
3.62275	95.7458
3.60762	95.6057
3.59262	95.5867
3.57775	95.5632
3.56299	95.4495
3.54836	95.3972
3.53385	95.3069
3.51945	95.1521
3.50517	94.9397
3.49101	94.8972
3.47696	94.8005
3.46303	94.7087
3.4492	94.6331
3.43549	94.5042
3.42188	94.3396
3.40838	94.0842
3.39499	94.2087
3.38171	94.1101
3.36852	94.1116
3.35544	94.0701
3.34246	93.9963
3.32958	93.9104
3.3168	93.74
3.30411	93.6052
3.29153	93.5413
3.27903	93.406
3.26664	93.2659
3.25433	93.1389
3.24212	93.0828
3.23	92.7131
3.21797	92.592
3.20603	92.3342
3.19418	92.1345
3.18241	91.8748
3.17074	91.6492
3.15914	91.3045
3.14763	90.948
3.13621	90.6091
3.12487	90.3904
3.11361	90.2029
3.10243	89.8582
3.09133	89.5437
3.0803	89.3103
3.06936	89.1072
3.0585	88.8279
3.04771	88.4959
3.037	88.1619
3.02636	87.7976
3.0158	87.5134
3.00531	87.0193
2.99489	86.7615
2.98454	86.6687
2.97427	86.5115
2.96407	86.4373
2.95393	86.3318
2.94387	86.3885
2.93387	86.239
2.92394	86.2654
2.91408	86.3748
2.90429	86.3338
2.89456	86.5662
2.88489	86.3367
2.87529	86.1287
2.86576	85.8338
2.85628	85.6638
2.84687	85.1892
2.83752	84.6775
2.82823	83.7049
2.81901	82.615
2.80984	82.1541
2.80073	82.5857
2.79168	82.867
2.78269	82.617
2.77376	82.4842
2.76488	83.5056
2.75606	82.5681
2.7473	76.9266
2.73859	71.7693
2.72994	69.7928
2.72134	56.2001
2.7128	32.8105
2.70431	56.0077
2.69587	78.243
2.68748	87.9851
2.67915	90.9851
2.67087	92.1541
2.66264	92.5818
2.65446	93.0867
2.64633	93.2898
2.63825	93.4822
2.63021	93.5662
2.62223	93.7498
2.6143	93.8044
2.60641	93.8796
2.59857	93.8328
2.59078	93.7859
2.58304	94.071
2.57534	93.8513
2.56768	93.7595
2.56008	94.0564
2.55251	93.7341
2.54499	93.9724
2.53752	94.0779
2.53009	93.7849
2.5227	93.7127
2.51536	93.6423
2.50806	93.6033
2.5008	93.8669
2.49358	93.9334
2.4864	93.9451
2.47927	93.7263
2.47218	93.6423
2.46512	93.5584
2.45811	93.863
2.45114	93.6365
2.4442	93.7146
2.43731	93.6013
2.43045	93.7263
2.42363	93.7459
2.41685	93.6033
2.41011	93.6287
2.40341	93.8318
2.39674	93.6345
2.39011	93.7185
2.38352	93.574
2.37696	93.5779
2.37044	93.4099
2.36395	93.5896
2.35751	93.2732
2.35109	93.5427
2.34471	93.406
2.33836	93.3591
2.33205	93.156
2.32578	93.1267
2.31953	93.3064
2.31332	93.4099
2.30714	93.5037
2.301	93.5642
2.29489	93.5466
2.28881	93.5232
2.28276	93.5076
2.27675	93.6345
2.27076	93.4861
2.26481	93.8455
2.25889	93.5349
2.253	93.822
2.24714	93.8923
2.24131	93.6345
2.23551	93.8123
2.22974	93.9841
2.224	93.3279
2.21829	93.7673
2.21261	93.8982
2.20696	93.8923
2.20134	93.6951
2.19574	94.0095
2.19018	93.9548
2.18464	94.0779
2.17913	93.8669
2.17365	94.1091
2.16819	94.1716
2.16277	94.281
2.15737	94.3591
2.15199	94.3201
2.14665	94.199
2.14133	94.2576
2.13603	94.2341
2.13077	93.9451
2.12552	94.3787
2.12031	94.5076
2.11512	94.7419
2.10995	94.5466
2.10481	94.4959
2.0997	94.4998
2.09461	94.1755
2.08954	94.7537
2.0845	95.3865
2.07948	94.031
