Name: Calcite CaCO3
Type: Mineral
Class: Carbonates
Particle Size: Solid
Sample No.: calcite.1
Owner: JHU
Wavelength Range: IR
Origin: Hunt and Salisbury Collection #194B (purchased from Ward's
Description: The sample consisted of transparent euhedral crystals.
Measurement: Bidirectional reflectance
X Units: Wavelength (micrometers)
Y Units: Reflectance (percent)
wavelength	value
25.0442	33.1132
24.3388	23.039
23.6719	15.8379
23.0407	13.2002
22.4422	11.3008
21.8741	10.7197
21.334	11.0283
20.8199	11.6074
20.33	12.2207
19.8627	12.5879
19.4163	13.0849
18.9896	13.4931
18.5812	13.813
18.19	14.1626
17.815	14.4638
17.4551	14.7226
17.1094	15.0107
16.7772	15.1543
16.4576	15.29
16.15	15.5146
15.8537	15.6367
15.568	15.8149
15.2925	15.998
15.0265	16.1616
14.7697	16.2959
14.5214	16.4965
14.2814	16.9936
14.0492	20.934
13.8244	15.3442
13.6067	15.9191
13.3957	16.1997
13.1912	16.372
12.9929	16.541
12.8004	16.7141
12.6135	16.8662
12.432	16.8977
12.2557	17.081
12.0843	17.291
11.9176	17.5532
11.7555	17.8046
11.5977	18.5478
11.444	21.5439
11.2944	41.3693
11.1487	20.3749
11.0067	16.5791
10.8682	16.8715
10.7332	17.0498
10.6015	17.1694
10.473	17.2334
10.3476	17.3234
10.2251	17.4184
10.1056	17.4414
9.98873	17.4704
9.87458	17.5188
9.763	17.591
9.65392	17.6547
9.54724	17.7775
9.44291	17.833
9.34082	17.8876
9.24091	18.081
9.14312	18.1564
9.04739	18.33
8.95363	18.6308
8.8618	18.6428
8.77183	18.5893
8.68368	18.6909
8.59727	18.7617
8.51257	18.8208
8.42951	18.8876
8.34807	18.9907
8.26819	19.1335
8.18981	19.2778
8.11292	19.4133
8.03745	19.5581
7.96337	19.7719
7.89064	20.0815
7.81924	20.518
7.74911	20.9404
7.68023	21.4433
7.61256	21.9267
7.54608	22.4516
7.48074	23.1367
7.41653	23.9555
7.35341	25.0566
7.29136	26.5439
7.23034	28.7187
7.17033	32.665
7.11132	37.3002
7.05327	42.1935
6.99616	43.4364
6.93996	44.1317
6.88467	44.8226
6.83024	45.4447
6.77667	46.3217
6.72393	48.2919
6.67201	52.8177
6.62089	57.4857
6.57054	62.3499
6.52095	65.45
6.4721	64.5897
6.42398	48.7489
6.37657	40.6703
6.32986	34.474
6.28382	29.914
6.23845	25.2504
6.19373	19.394
6.14965	11.6401
6.10619	5.2915
6.06334	6.2007
6.02109	7.0537
5.97942	7.728
5.93832	8.2226
5.89778	8.6557
5.8578	8.9858
5.81835	9.2202
5.77943	9.6528
5.74103	10.0664
5.70314	10.3051
5.66574	10.4629
5.62883	10.7182
5.5924	11.2456
5.55644	10.2177
5.52093	10.5117
5.48588	10.7715
5.45127	10.9345
5.41709	11.0503
5.38334	11.1582
5.35	11.2578
5.31708	11.3501
5.28456	11.4145
5.25243	11.4856
5.2207	11.5642
5.18934	11.6333
5.15836	11.6921
5.12775	11.7339
5.09749	11.7612
5.0676	11.8296
5.03805	11.8498
5.00884	11.8794
4.97998	11.9255
4.95144	11.9568
4.92322	11.977
4.89533	12.0239
4.86775	12.0551
4.84048	12.0776
4.81351	12.0883
4.78684	12.1342
4.76047	12.1369
4.73439	12.165
4.70859	12.1667
4.68306	12.1831
4.65782	12.1997
4.63284	12.1985
4.60814	12.2336
4.58369	12.2363
4.5595	12.2404
4.53557	12.2612
4.51188	12.2832
4.48845	12.2817
4.46525	12.291
4.44229	12.2822
4.41957	12.289
4.39708	12.3203
4.37481	12.3354
4.35277	12.3335
4.33096	12.3244
4.30935	12.3413
4.28797	12.3596
4.26679	12.372
4.24583	12.3657
4.22506	12.3818
4.2045	12.3789
4.18414	12.3986
4.16398	12.4057
4.14401	12.4067
4.12423	12.4233
4.10464	12.4052
4.08523	12.4463
4.066	12.4541
4.04696	12.4651
4.02809	12.4804
4.0094	12.5442
3.99088	12.5195
3.97253	12.2883
3.95435	12.146
3.93634	12.1877
3.91848	12.2138
3.90079	12.2422
3.88326	12.2129
3.86589	12.2129
3.84867	12.205
3.8316	12.1906
3.81468	12.1943
3.79791	12.2043
3.78129	12.207
3.76482	12.219
3.74848	12.2085
3.73229	12.2055
3.71624	12.2163
3.70032	12.217
3.68454	12.2063
3.6689	12.177
3.65338	12.1779
3.638	12.1474
3.62275	12.1311
3.60762	12.132
3.59262	12.1184
3.57775	12.1047
3.56299	12.0664
3.54836	12.0627
3.53385	12.042
3.51945	12.0439
3.50517	12.0752
3.49101	12.1174
3.47696	12.0478
3.46303	11.9885
3.4492	12.0197
3.43549	12.0175
3.42188	12.0862
3.40838	12.1721
3.39499	12.1318
3.38171	12.1318
3.36852	12.2309
3.35544	12.1049
3.34246	11.9839
3.32958	11.9565
3.3168	11.915
3.30411	11.8803
3.29153	11.8681
3.27903	11.8344
3.26664	11.8134
3.25433	11.7876
3.24212	11.7724
3.23	11.7446
3.21797	11.7412
3.20603	11.7412
3.19418	11.6997
3.18241	11.7114
3.17074	11.6743
3.15914	11.6323
3.14763	11.6172
3.13621	11.5888
3.12487	11.5566
3.11361	11.5298
3.10243	11.498
3.09133	11.4824
3.0803	11.4931
3.06936	11.4599
3.0585	11.457
3.04771	11.4394
3.037	11.4199
3.02636	11.4243
3.0158	11.3955
3.00531	11.3676
2.99489	11.3662
2.98454	11.3364
2.97427	11.3008
2.96407	11.2802
2.95393	11.2636
2.94387	11.209
2.93387	11.1894
2.92394	11.1347
2.91408	11.0884
2.90429	11.0454
2.89456	11.0317
2.88489	10.9809
2.87529	10.936
2.86576	10.9145
2.85628	10.8794
2.84687	10.8559
2.83752	10.7973
2.82823	10.7519
2.81901	10.7055
2.80984	10.6552
2.80073	10.6269
2.79168	10.5864
2.78269	10.5317
2.77376	10.5434
2.76488	10.5356
2.75606	10.4653
2.7473	10.4731
2.73859	10.4536
2.72994	10.4321
2.72134	10.4228
2.7128	10.3838
2.70431	10.3701
2.69587	10.3447
2.68748	10.3203
2.67915	10.3261
2.67087	10.2695
2.66264	10.2422
2.65446	10.2217
2.64633	10.1894
2.63825	10.1914
2.63021	10.1074
2.62223	10.0801
2.6143	10.0781
2.60641	10.0019
2.59857	9.9472
2.59078	9.9658
2.58304	9.8974
2.57534	9.8926
2.56768	9.8203
2.56008	9.7558
2.55251	9.748
2.54499	9.7187
2.53752	9.6855
2.53009	9.7031
2.5227	9.664
2.51536	9.6289
2.50806	9.6689
2.5008	9.6933
2.49358	9.6347
2.4864	9.6308
2.47927	9.5986
2.47218	9.5908
2.46512	9.5898
2.45811	9.6738
2.45114	9.6758
2.4442	9.6758
2.43731	9.6758
2.43045	9.6494
2.42363	9.6484
2.41685	9.6758
2.41011	9.6494
2.40341	9.626
2.39674	9.6103
2.39011	9.6367
2.38352	9.5937
2.37696	9.6758
2.37044	9.6406
2.36395	9.6181
2.35751	9.5791
2.35109	9.5976
2.34471	9.5683
2.33836	9.5781
2.33205	9.623
2.32578	9.5801
2.31953	9.6601
2.31332	9.625
2.30714	9.6562
2.301	9.6797
2.29489	9.6758
2.28881	9.7265
2.28276	9.7148
2.27675	9.7461
2.27076	9.7832
2.26481	9.7968
2.25889	9.7441
2.253	9.791
2.24714	9.7812
2.24131	9.8593
2.23551	9.7812
2.22974	9.789
2.224	9.7851
2.21829	9.834
2.21261	9.8359
2.20696	9.7968
2.20134	9.8398
2.19574	9.8437
2.19018	9.8222
2.18464	9.7988
2.17913	9.7812
2.17365	9.8515
2.16819	9.8593
2.16277	9.8926
2.15737	9.9023
2.15199	9.8515
2.14665	9.8047
2.14133	9.8457
2.13603	9.8437
2.13077	9.8047
2.12552	9.8672
2.12031	9.8281
2.11512	9.8242
2.10995	9.7285
2.10481	9.7695
2.0997	9.7734
2.09461	9.7754
2.08954	9.7968
2.0845	9.6972
2.07948	9.625
