Name: Fluorite CaF2
Type: Mineral
Class: Halides
Particle Size: Fine  (0-74  Micrometers)
Sample No.: flourite.1
Owner: JHU
Wavelength Range: IR
Origin: Donated by Norma Vergo; sample from Bingham, New Mexico.
Description: The sample was a large piece of a transparent single
Measurement: Bidirectional reflectance
X Units: Wavelength (micrometers)
Y Units: Reflectance (percent)
wavelength	value
25.0442	1.7761
24.3388	1.7168
23.6719	1.7197
23.0407	1.7859
22.4422	1.99
21.8741	2.3003
21.334	2.7226
20.8199	3.0928
20.33	2.9853
19.8627	2.6523
19.4163	2.3945
18.9896	2.0972
18.5812	1.6489
18.19	1.2517
17.815	0.9839
17.4551	0.8645
17.1094	0.8149
16.7772	0.8603
16.4576	0.8738
16.15	0.9075
15.8537	0.9543
15.568	1.0449
15.2925	1.2295
15.0265	1.3906
14.7697	1.5818
14.5214	1.7915
14.2814	1.9639
14.0492	2.1135
13.8244	2.2407
13.6067	2.5061
13.3957	2.8559
13.1912	3.2041
12.9929	3.5142
12.8004	3.8213
12.6135	4.1389
12.432	4.4985
12.2557	4.9126
12.0843	5.2458
11.9176	5.4153
11.7555	5.6509
11.5977	5.8349
11.444	5.9951
11.2944	6.1015
11.1487	6.2468
11.0067	6.4084
10.8682	6.478
10.7332	6.7077
10.6015	6.8742
10.473	6.9866
10.3476	7.0488
10.2251	7.1257
10.1056	7.3086
9.98873	7.3906
9.87458	7.2629
9.763	7.3652
9.65392	7.6501
9.54724	8.0757
9.44291	8.3774
9.34082	8.5183
9.24091	8.5825
9.14312	8.6496
9.04739	8.749
8.95363	8.8637
8.8618	8.956
8.77183	9.0603
8.68368	9.1636
8.59727	9.248
8.51257	9.436
8.42951	9.5622
8.34807	9.6487
8.26819	9.7529
8.18981	9.8755
8.11292	9.968
8.03745	10.0647
7.96337	10.1753
7.89064	10.2783
7.81924	10.3757
7.74911	10.459
7.68023	10.5171
7.61256	10.5661
7.54608	10.6169
7.48074	10.6457
7.41653	10.6426
7.35341	10.5884
7.29136	10.48
7.23034	10.3249
7.17033	10.0937
7.11132	9.9446
7.05327	9.979
6.99616	9.9902
6.93996	9.9616
6.88467	10.0066
6.83024	10.0754
6.77667	10.2143
6.72393	10.3838
6.67201	10.5439
6.62089	10.6928
6.57054	10.8362
6.52095	10.9587
6.4721	11.0388
6.42398	11.0927
6.37657	11.1662
6.32986	11.1902
6.28382	11.1828
6.23845	11.1867
6.19373	11.1963
6.14965	11.2187
6.10619	11.2251
6.06334	11.247
6.02109	11.3215
5.97942	11.4118
5.93832	11.5368
5.89778	11.6543
5.8578	11.7539
5.81835	11.8003
5.77943	11.768
5.74103	11.8144
5.70314	11.8991
5.66574	11.9319
5.62883	11.9431
5.5924	11.9577
5.55644	11.9638
5.52093	11.9726
5.48588	11.9885
5.45127	12.0066
5.41709	12.0127
5.38334	12.0283
5.35	12.0383
5.31708	12.0725
5.28456	12.1059
5.25243	12.1377
5.2207	12.1631
5.18934	12.1782
5.15836	12.1943
5.12775	12.2229
5.09749	12.2639
5.0676	12.2954
5.03805	12.3237
5.00884	12.3423
4.97998	12.3632
4.95144	12.3772
4.92322	12.3943
4.89533	12.4201
4.86775	12.4448
4.84048	12.4748
4.81351	12.4875
4.78684	12.5009
4.76047	12.4944
4.73439	12.487
4.70859	12.476
4.68306	12.4782
4.65782	12.4856
4.63284	12.5019
4.60814	12.5161
4.58369	12.528
4.5595	12.5334
4.53557	12.5334
4.51188	12.529
4.48845	12.5366
4.46525	12.5537
4.44229	12.5747
4.41957	12.6035
4.39708	12.6242
4.37481	12.6452
4.35277	12.6555
4.33096	12.6604
4.30935	12.6694
4.28797	12.6799
4.26679	12.6953
4.24583	12.7175
4.22506	12.7339
4.2045	12.7558
4.18414	12.7529
4.16398	12.7302
4.14401	12.7077
4.12423	12.7175
4.10464	12.7278
4.08523	12.7336
4.066	12.7429
4.04696	12.7424
4.02809	12.7412
4.0094	12.7356
3.99088	12.7175
3.97253	12.706
3.95435	12.7009
3.93634	12.7016
3.91848	12.7197
3.90079	12.7307
3.88326	12.7417
3.86589	12.7431
3.84867	12.7439
3.8316	12.7434
3.81468	12.7446
3.79791	12.7483
3.78129	12.7683
3.76482	12.7841
3.74848	12.7915
3.73229	12.7949
3.71624	12.791
3.70032	12.7807
3.68454	12.7651
3.6689	12.7624
3.65338	12.7607
3.638	12.7605
3.62275	12.7507
3.60762	12.7417
3.59262	12.7304
3.57775	12.7085
3.56299	12.6855
3.54836	12.6491
3.53385	12.6196
3.51945	12.5739
3.50517	12.4807
3.49101	12.5024
3.47696	12.5188
3.46303	12.5158
3.4492	12.478
3.43549	12.4272
3.42188	12.3264
3.40838	12.3593
3.39499	12.4531
3.38171	12.4875
3.36852	12.5236
3.35544	12.5605
3.34246	12.5754
3.32958	12.5671
3.3168	12.5625
3.30411	12.5483
3.29153	12.5327
3.27903	12.5168
3.26664	12.489
3.25433	12.469
3.24212	12.4309
3.23	12.3972
3.21797	12.353
3.20603	12.3022
3.19418	12.2446
3.18241	12.2094
3.17074	12.1862
3.15914	12.1728
3.14763	12.1599
3.13621	12.1504
3.12487	12.1462
3.11361	12.1311
3.10243	12.1245
3.09133	12.1142
3.0803	12.1042
3.06936	12.0971
3.0585	12.0952
3.04771	12.0942
3.037	12.0835
3.02636	12.0837
3.0158	12.0766
3.00531	12.0742
2.99489	12.063
2.98454	12.0515
2.97427	12.0498
2.96407	12.0466
2.95393	12.0371
2.94387	12.029
2.93387	12.0266
2.92394	12.0363
2.91408	12.0442
2.90429	12.0556
2.89456	12.0688
2.88489	12.0988
2.87529	12.1113
2.86576	12.1416
2.85628	12.1589
2.84687	12.1987
2.83752	12.2361
2.82823	12.2929
2.81901	12.343
2.80984	12.3906
2.80073	12.4536
2.79168	12.5298
2.78269	12.5864
2.77376	12.615
2.76488	12.5757
2.75606	12.4892
2.7473	12.4987
2.73859	12.6457
2.72994	12.7736
2.72134	12.7153
2.7128	12.8811
2.70431	13.0019
2.69587	13.0974
2.68748	13.164
2.67915	13.2021
2.67087	13.2295
2.66264	13.2519
2.65446	13.269
2.64633	13.269
2.63825	13.2795
2.63021	13.2631
2.62223	13.2736
2.6143	13.2717
2.60641	13.2871
2.59857	13.2815
2.59078	13.2873
2.58304	13.2832
2.57534	13.2812
2.56768	13.2719
2.56008	13.2839
2.55251	13.279
2.54499	13.2805
2.53752	13.2771
2.53009	13.2712
2.5227	13.2736
2.51536	13.2702
2.50806	13.2727
2.5008	13.27
2.49358	13.2751
2.4864	13.2741
2.47927	13.2866
2.47218	13.2812
2.46512	13.2868
2.45811	13.2946
2.45114	13.2968
2.4442	13.3
2.43731	13.2758
2.43045	13.3012
2.42363	13.3095
2.41685	13.3022
2.41011	13.3149
2.40341	13.3115
2.39674	13.3156
2.39011	13.3183
2.38352	13.322
2.37696	13.3452
2.37044	13.3354
2.36395	13.3305
2.35751	13.3405
2.35109	13.3393
2.34471	13.3396
2.33836	13.344
2.33205	13.3535
2.32578	13.361
2.31953	13.3767
2.31332	13.3862
2.30714	13.3789
2.301	13.4091
2.29489	13.4123
2.28881	13.4262
2.28276	13.4502
2.27675	13.4414
2.27076	13.4336
2.26481	13.4602
2.25889	13.4773
2.253	13.4907
2.24714	13.4963
2.24131	13.5302
2.23551	13.5444
2.22974	13.5395
2.224	13.5725
2.21829	13.5944
2.21261	13.6301
2.20696	13.624
2.20134	13.623
2.19574	13.6555
2.19018	13.6709
2.18464	13.685
2.17913	13.6706
2.17365	13.6816
2.16819	13.7165
2.16277	13.7436
2.15737	13.7478
2.15199	13.7644
2.14665	13.7763
2.14133	13.7805
2.13603	13.8337
2.13077	13.8303
2.12552	13.8545
2.12031	13.8789
2.11512	13.8989
2.10995	13.9011
2.10481	13.935
2.0997	13.9475
2.09461	13.9648
2.08954	13.9807
2.0845	13.9939
2.07948	14.0244
