Name: PCA 82507
Type: Stony Meteorites
Class: Ordinary Chondrite
Subclass: LL6
Particle Size: 0-75 micrometers
Sample No.: PCA 82507
Owner: JHU
Origin: Found in Antarctic in 1982.  Smithsonian sample No. PCA 82507.05.
Description: None.
Measurement: Bidirectional reflectance
X Units: Wavelength (micrometers)
Y Units: Reflectance (percent)
wavelength	value
25.044	1.3425
24.339	1.2241
23.672	1.2109
23.041	1.0259
22.442	0.8525
21.874	0.8293
21.334	0.813
20.82	1.0344
20.33	1.2441
19.863	1.2488
19.416	1.3364
18.99	1.2583
18.581	1.301
18.19	1.1943
17.815	1.0688
17.455	0.9988
17.109	0.9646
16.777	0.9502
16.458	0.9634
16.15	0.9553
15.854	0.9236
15.568	0.7471
15.292	0.783
15.027	0.917
14.77	1.0557
14.521	1.2385
14.281	1.4397
14.049	1.5486
13.824	1.509
13.607	1.6663
13.396	1.8064
13.191	1.9639
12.993	2.0288
12.8	1.9719
12.614	1.8955
12.432	1.7886
12.256	1.6267
12.084	1.4016
11.918	1.1692
11.755	1.2605
11.598	1.3894
11.444	1.668
11.294	1.8098
11.149	1.7744
11.007	1.7407
10.868	1.7681
10.733	1.8196
10.602	1.6855
10.473	1.3977
10.348	1.3352
10.225	1.3909
10.106	1.314
9.9887	1.2615
9.8746	1.2634
9.763	1.322
9.6539	1.4084
9.5472	1.4573
9.4429	1.4311
9.3408	1.2727
9.2409	1.1501
9.1431	1.1396
9.0474	1.157
8.9536	1.1235
8.8618	1.1252
8.7718	1.1201
8.6837	1.1157
8.5973	1.1675
8.5126	1.2839
8.4295	1.4966
8.3481	1.7727
8.2682	2.115
8.1898	2.4333
8.1129	2.7053
8.0374	2.9546
7.9634	3.1684
7.8906	3.3452
7.8192	3.4932
7.7491	3.6355
7.6802	3.7268
7.6126	3.8022
7.5461	3.9145
7.4807	4.0647
7.4165	4.2117
7.3534	4.3572
7.2914	4.4707
7.2303	4.5784
7.1703	4.6589
7.1113	4.7317
7.0533	4.8401
6.9962	4.9524
6.94	5.0415
6.8847	5.1028
6.8302	5.1738
6.7767	5.2627
6.7239	5.3183
6.672	5.3154
6.6209	5.2964
6.5705	5.3103
6.5209	5.3323
6.4721	5.3642
6.424	5.373
6.3766	5.3628
6.3299	5.3262
6.2838	5.3183
6.2385	5.2976
6.1937	5.2654
6.1496	5.238
6.1062	5.1453
6.0633	4.9094
6.0211	4.779
5.9794	4.8545
5.9383	4.9731
5.8978	5.0691
5.8578	5.1562
5.8184	5.2219
5.7794	5.241
5.741	5.135
5.7031	4.9651
5.6657	4.8547
5.6288	4.9429
5.5924	5.1494
5.5564	5.3017
5.5209	5.3664
5.4859	5.395
5.4513	5.4731
5.4171	5.5813
5.3833	5.6789
5.35	5.738
5.3171	5.7571
5.2846	5.748
5.2524	5.7593
5.2207	5.7988
5.1893	5.8337
5.1584	5.8843
5.1277	5.9487
5.0975	6.0093
5.0676	6.0486
5.038	6.1035
5.0088	6.1396
4.98	6.2016
4.9514	6.3108
4.9232	6.4429
4.8953	6.5576
4.8678	6.6377
4.8405	6.7119
4.8135	6.7883
4.7868	6.8601
4.7605	6.9228
4.7344	6.9748
4.7086	7.0322
4.6831	7.0915
4.6578	7.1545
4.6328	7.2148
4.6081	7.2739
4.5837	7.3159
4.5595	7.362
4.5356	7.3957
4.5119	7.4245
4.4884	7.4414
4.4652	7.4651
4.4423	7.487
4.4196	7.5134
4.3971	7.5215
4.3748	7.5405
4.3528	7.5505
4.331	7.5654
4.3094	7.5722
4.288	7.5842
4.2668	7.6018
4.2458	7.6247
4.2251	7.6462
4.2045	7.6572
4.1841	7.6802
4.164	7.6846
4.144	7.6926
4.1242	7.7016
4.1046	7.7126
4.0852	7.7231
4.066	7.738
4.047	7.7373
4.0281	7.7517
4.0094	7.7615
3.9909	7.7734
3.9725	7.7712
3.9544	7.7776
3.9363	7.7754
3.9185	7.7766
3.9008	7.7666
3.8833	7.7712
3.8659	7.7685
3.8487	7.7654
3.8316	7.7651
3.8147	7.7634
3.7979	7.7612
3.7813	7.7558
3.7648	7.7512
3.7485	7.7468
3.7323	7.7363
3.7162	7.7204
3.7003	7.7187
3.6845	7.7041
3.6689	7.6958
3.6534	7.6929
3.638	7.688
3.6227	7.6794
3.6076	7.6728
3.5926	7.6636
3.5777	7.6423
3.563	7.633
3.5484	7.6047
3.5338	7.5945
3.5195	7.5708
3.5052	7.5386
3.491	7.5202
3.477	7.5168
3.463	7.4963
3.4492	7.4775
3.4355	7.4385
3.4219	7.3962
3.4084	7.3774
3.395	7.3789
3.3817	7.3638
3.3685	7.3489
3.3554	7.3335
3.3425	7.3164
3.3296	7.3015
3.3168	7.2742
3.3041	7.2585
3.2915	7.2317
3.279	7.2058
3.2666	7.1907
3.2543	7.1699
3.2421	7.1399
3.23	7.1123
3.218	7.0888
3.206	7.0713
3.1942	7.043
3.1824	7.01
3.1707	6.9895
3.1591	6.9555
3.1476	6.925
3.1362	6.8855
3.1249	6.8603
3.1136	6.8376
3.1024	6.7934
3.0913	6.7698
3.0803	6.7351
3.0694	6.7192
3.0585	6.6994
3.0477	6.6655
3.037	6.6545
3.0264	6.6159
3.0158	6.5793
3.0053	6.5583
2.9949	6.5312
2.9845	6.5076
2.9743	6.4773
2.9641	6.4438
2.9539	6.4053
2.9439	6.3584
2.9339	6.344
2.9239	6.3657
2.9141	6.3874
2.9043	6.4084
2.8946	6.3974
2.8849	6.4155
2.8753	6.4067
2.8658	6.4045
2.8563	6.4114
2.8469	6.4201
2.8375	6.4148
2.8282	6.4204
2.819	6.4206
2.8098	6.4416
2.8007	6.5007
2.7917	6.5603
2.7827	6.6257
2.7738	6.6916
2.7649	6.7624
2.7561	6.8274
2.7473	6.9148
2.7386	6.9839
2.7299	7.0664
2.7213	7.1118
2.7128	7.1794
2.7043	7.2551
2.6959	7.2956
2.6875	7.3506
2.6791	7.3647
2.6709	7.3801
2.6626	7.3689
2.6545	7.3896
2.6463	7.3884
2.6382	7.3655
2.6302	7.345
2.6222	7.3608
2.6143	7.3183
2.6064	7.3218
2.5986	7.2917
2.5908	7.2688
2.583	7.2822
2.5753	7.2585
2.5677	7.2324
2.5601	7.2339
2.5525	7.2239
2.545	7.2034
2.5375	7.1804
2.5301	7.1929
2.5227	7.1653
2.5154	7.1255
2.5081	7.1233
2.5008	7.0986
2.4936	7.1059
2.4864	7.0534
2.4793	7.0378
2.4722	7.0293
2.4651	6.9985
2.4581	6.9553
2.4511	6.9389
2.4442	6.9255
2.4373	6.9043
2.4305	6.8862
2.4236	6.8764
2.4169	6.8393
2.4101	6.8083
2.4034	6.8115
2.3967	6.7685
2.3901	6.7768
2.3835	6.7314
2.377	6.7192
2.3704	6.6787
2.364	6.686
2.3575	6.6789
2.3511	6.6477
2.3447	6.6262
2.3384	6.6123
2.3321	6.6037
2.3258	6.5925
2.3195	6.5578
2.3133	6.5119
2.3071	6.5146
2.301	6.4841
2.2949	6.4736
2.2888	6.456
2.2828	6.4375
2.2767	6.4333
2.2708	6.3965
2.2648	6.4084
2.2589	6.3879
2.253	6.3774
2.2471	6.3408
2.2413	6.3374
2.2355	6.3244
2.2297	6.3169
2.224	6.3013
2.2183	6.2771
2.2126	6.2627
2.207	6.2453
2.2013	6.2361
2.1957	6.2175
2.1902	6.2507
2.1846	6.1916
2.1791	6.2046
2.1736	6.1792
2.1682	6.1819
2.1628	6.1545
2.1574	6.1369
2.152	6.1506
2.1466	6.1123
2.1413	6.0947
2.136	6.1138
2.1308	6.126
2.1255	6.112
2.1203	6.0864
2.1151	6.0871
2.11	6.082
2.1048	6.1135
2.0997	6.063
2.0946	6.074
2.0895	6.0766
2.0845	6.0693
2.0795	6.0088
