Name: Diopside CaMgSi2O6
Type: Mineral
Class: Silicates
Subclass: Inosilicates (Chain Silicates) (Pyroxene Group)
Particle Size: Fine (Less than 2  Micrometers)
Sample No.: diopside.1
Owner: JHU
Wavelength Range: IR
Origin: Sample from St. Lawrence Co., New York via the Smithsonian
Description: Sample consisted of two green subhedral crystals 1-2 cm
Measurement: Transmission
X Units: Wavelength (micrometers)
Y Units: Transmittance (percent)
wavelength	value
25.0442	61.9452
24.3388	67.3436
23.6719	74.3045
23.0407	72.744
22.4422	65.6756
21.8741	51.6288
21.334	40.5038
20.8199	36.9726
20.33	43.7245
19.8627	48.8163
19.4163	44.0702
18.9896	47.9188
18.5812	52.412
18.19	64.4305
17.815	76.5975
17.4551	83.6287
17.1094	87.1443
16.7772	88.7693
16.4576	89.3572
16.15	88.2791
15.8537	78.8025
15.568	82.116
15.2925	88.5759
15.0265	87.7439
14.7697	84.5955
14.5214	90.3181
14.2814	91.8611
14.0492	92.1082
13.8244	93.3181
13.6067	93.4143
13.3957	93.1682
13.1912	92.3533
12.9929	92.2439
12.8004	91.2581
12.6135	90.5256
12.432	89.2009
12.2557	86.2678
12.0843	80.7029
11.9176	70.2576
11.7555	52.5257
11.5977	39.8017
11.444	41.5751
11.2944	51.7284
11.1487	58.7909
11.0067	59.8578
10.8682	53.8094
10.7332	65.6375
10.6015	70.0584
10.473	54.8314
10.3476	39.0824
10.2251	41.435
10.1056	43.8754
9.98873	54.9667
9.87458	62.5985
9.763	65.3797
9.65392	63.9823
9.54724	58.7772
9.44291	45.327
9.34082	32.7519
9.24091	34.1112
9.14312	38.5502
9.04739	49.2098
8.95363	64.9652
8.8618	73.8714
8.77183	80.241
8.68368	84.303
8.59727	87.0374
8.51257	89.0105
8.42951	90.5964
8.34807	91.8572
8.26819	92.9639
8.18981	93.7354
8.11292	94.3066
8.03745	94.8367
7.96337	95.2656
7.89064	95.6943
7.81924	96.0752
7.74911	96.3174
7.68023	96.4084
7.61256	96.5691
7.54608	96.7839
7.48074	96.8679
7.41653	96.9617
7.35341	96.9033
7.29136	96.8203
7.23034	96.5518
7.17033	96.7156
7.11132	96.375
7.05327	95.9287
6.99616	95.908
6.93996	96.2624
6.88467	96.3494
6.83024	96.3809
6.77667	96.7039
6.72393	96.9365
6.67201	97.074
6.62089	97.3603
6.57054	97.4665
6.52095	97.614
6.4721	97.6318
6.42398	97.7266
6.37657	97.6894
6.32986	97.5549
6.28382	97.4255
6.23845	97.0781
6.19373	96.4902
6.14965	95.9248
6.10619	95.9412
6.06334	96.4202
6.02109	97.8396
5.97942	98.906
5.93832	99.0127
5.89778	98.9167
5.8578	99.0749
5.81835	99.2561
5.77943	99.3342
5.74103	99.4236
5.70314	99.5544
5.66574	99.5642
5.62883	99.5596
5.5924	99.5788
5.55644	99.5085
5.52093	99.6016
5.48588	99.6042
5.45127	99.6221
5.41709	99.6335
5.38334	99.5203
5.35	99.5935
5.31708	99.5652
5.28456	99.5593
5.25243	99.5915
5.2207	99.5957
5.18934	99.5928
5.15836	99.5635
5.12775	99.5115
5.09749	99.3904
5.0676	99.3953
5.03805	99.4363
5.00884	99.4951
4.97998	99.4797
4.95144	99.5105
4.92322	99.4768
4.89533	99.4729
4.86775	99.5212
4.84048	99.4778
4.81351	99.5505
4.78684	99.6365
4.76047	99.6262
4.73439	99.6399
4.70859	99.657
4.68306	99.7541
4.65782	99.7292
4.63284	99.7995
4.60814	99.9114
4.58369	99.801
4.5595	99.7712
4.53557	99.7781
4.51188	99.7522
4.48845	99.6848
4.46525	99.6247
4.44229	99.6233
4.41957	99.6365
4.39708	99.6448
4.37481	99.5901
4.35277	99.5686
4.33096	99.5217
4.30935	99.5564
4.28797	99.5017
4.26679	99.4675
4.24583	99.5417
4.22506	99.4255
4.2045	99.4402
4.18414	99.4495
4.16398	99.4421
4.14401	99.3523
4.12423	99.3689
4.10464	99.3425
4.08523	99.3064
4.066	99.3328
4.04696	99.2527
4.02809	99.262
4.0094	99.2419
3.99088	99.1545
3.97253	99.0954
3.95435	99.0906
3.93634	99.1912
3.91848	99.1453
3.90079	99.1101
3.88326	99.0144
3.86589	98.9665
3.84867	98.9846
3.8316	98.9734
3.81468	98.9285
3.79791	98.9807
3.78129	98.8328
3.76482	98.8181
3.74848	98.7888
3.73229	98.7712
3.71624	98.7263
3.70032	98.5447
3.68454	98.5979
3.6689	98.5549
3.65338	98.5496
3.638	98.4299
3.62275	98.3259
3.60762	98.3498
3.59262	98.4026
3.57775	98.2869
3.56299	98.1291
3.54836	98.0759
3.53385	98.0515
3.51945	97.8142
3.50517	97.7034
3.49101	97.6531
3.47696	97.5378
3.46303	97.4822
3.4492	97.3962
3.43549	97.2327
3.42188	97.1389
3.40838	97.0862
3.39499	97.0925
3.38171	97.0706
3.36852	97.3337
3.35544	97.2146
3.34246	97.1755
3.32958	97.1697
3.3168	97.0915
3.30411	97.0369
3.29153	96.9285
3.27903	96.8225
3.26664	96.7815
3.25433	96.6682
3.24212	96.6482
3.23	96.5349
3.21797	96.3591
3.20603	96.2268
3.19418	96.0232
3.18241	95.9167
3.17074	95.7253
3.15914	95.4373
3.14763	95.2781
3.13621	94.9929
3.12487	94.8992
3.11361	94.5955
3.10243	94.197
3.09133	93.9744
3.0803	93.6804
3.06936	93.4851
3.0585	93.1853
3.04771	93.0847
3.037	92.6658
3.02636	92.3162
3.0158	91.9461
3.00531	91.3923
2.99489	90.8318
2.98454	90.2781
2.97427	89.3416
2.96407	88.5681
2.95393	87.7244
2.94387	87.2439
2.93387	86.8562
2.92394	86.4568
2.91408	86.3767
2.90429	86.4148
2.89456	86.5476
2.88489	86.9734
2.87529	87.1931
2.86576	87.4929
2.85628	88.0779
2.84687	88.4656
2.83752	89.199
2.82823	89.5701
2.81901	90.3181
2.80984	90.825
2.80073	91.4343
2.79168	92.0007
2.78269	92.5242
2.77376	93.197
2.76488	93.9021
2.75606	94.6052
2.7473	95.238
2.73859	95.6345
2.72994	95.489
2.72134	95.2781
2.7128	95.8718
2.70431	96.3298
2.69587	96.5671
2.68748	96.7126
2.67915	96.6951
2.67087	96.8992
2.66264	96.7146
2.65446	96.656
2.64633	96.5662
2.63825	96.6716
2.63021	96.7195
2.62223	96.5583
2.6143	96.5749
2.60641	96.4587
2.59857	96.5437
2.59078	96.5232
2.58304	96.3708
2.57534	96.2498
2.56768	96.283
2.56008	96.3298
2.55251	96.1951
2.54499	95.9529
2.53752	96.3923
2.53009	95.988
2.5227	95.8318
2.51536	95.9431
2.50806	96.115
2.5008	95.8591
2.49358	95.8611
2.4864	95.906
2.47927	95.7361
2.47218	95.8455
2.46512	95.8787
2.45811	95.781
2.45114	95.5876
2.4442	95.6248
2.43731	95.4626
2.43045	95.5662
2.42363	95.4548
2.41685	95.658
2.41011	95.3474
2.40341	95.2966
2.39674	95.2576
2.39011	95.1267
2.38352	95.2849
2.37696	95.2576
2.37044	95.2986
2.36395	95.3474
2.35751	95.3279
2.35109	95.0662
2.34471	95.0388
2.33836	94.9216
2.33205	95.0173
2.32578	94.8513
2.31953	95.0564
2.31332	94.9548
2.30714	94.9021
2.301	94.7654
2.29489	94.8201
2.28881	94.7908
2.28276	94.8513
2.27675	94.5173
2.27076	94.5544
2.26481	94.7751
2.25889	94.6423
2.253	94.783
2.24714	94.6013
2.24131	94.6736
2.23551	94.238
2.22974	94.5876
2.224	94.3826
2.21829	94.3904
2.21261	94.2966
2.20696	94.3982
2.20134	94.2595
2.19574	94.4138
2.19018	94.4861
2.18464	94.3591
2.17913	94.2029
2.17365	94.7146
2.16819	94.3552
2.16277	94.363
2.15737	94.1677
2.15199	93.9959
2.14665	93.9373
2.14133	93.781
2.13603	94.4919
2.13077	93.8787
2.12552	94.0271
2.12031	94.1248
2.11512	94.0974
2.10995	93.8357
2.10481	94.1052
2.0997	94.2966
2.09461	94.2185
2.08954	93.9685
2.0845	94.0974
2.07948	93.9724
