Name: 14259.61
Type: Soil
Class: Lunar
Subclass: Transitional
Particle Size: Fine
Sample No.: 14259.61
Owner: JHU
Origin: Apollo 14 landing site via the NASA Lunar Sample Repository at Johnson
Description: The Apollo 14 site represents major element chemistry transitional
Measurement: Directional (10 degree) hemispherical reflectance
X Units: Wavelength (micrometers)
Y Units: Reflectance (percent)
wavelength	value
14.011	1.0732
13.788	1.0222
13.571	1.1489
13.361	1.1975
13.158	1.2851
12.96	1.3563
12.769	1.4379
12.583	1.6417
12.402	1.8425
12.227	1.9948
12.056	1.9926
11.89	1.9384
11.729	1.9398
11.572	1.9418
11.419	1.9819
11.27	1.9126
11.125	1.8974
10.983	1.8462
10.846	1.88
10.711	1.8556
10.58	1.8166
10.452	1.7154
10.327	1.6696
10.205	1.5876
10.086	1.5645
9.97	1.532
9.856	1.5059
9.745	1.5085
9.636	1.4634
9.53	1.4654
9.426	1.4324
9.324	1.3978
9.225	1.3192
9.127	1.2762
9.032	1.2238
8.938	1.0821
8.847	0.9375
8.757	0.8878
8.669	0.8092
8.583	0.7139
8.499	0.6633
8.416	0.5934
8.335	0.5515
8.255	0.5344
8.177	0.5723
8.1	0.7232
8.025	0.9842
7.951	1.3923
7.879	1.8816
7.808	2.4069
7.737	2.9594
7.669	3.5717
7.601	4.1559
7.535	4.7255
7.47	5.2982
7.406	5.8497
7.343	6.3379
7.281	6.8549
7.22	7.3303
7.16	7.7606
7.102	8.1444
7.044	8.557
6.987	8.8623
6.931	9.1953
6.875	9.5151
6.821	9.7541
6.768	9.9721
6.715	10.178
6.663	10.275
6.612	10.42
6.562	10.581
6.513	10.733
6.464	10.884
6.416	11.074
6.369	11.03
6.322	11.002
6.276	11.046
6.231	11.126
6.186	11.265
6.142	11.39
6.099	11.567
6.056	11.781
6.014	11.917
5.973	12.189
5.931	12.586
5.891	12.972
5.851	13.181
5.812	13.478
5.773	13.788
5.735	13.945
5.697	14.074
5.66	14.169
5.623	14.33
5.586	14.561
5.551	14.74
5.515	14.835
5.48	14.926
5.446	14.983
5.411	15.1
5.378	15.244
5.345	15.38
5.312	15.51
5.279	15.673
5.247	15.87
5.215	16.097
5.184	16.345
5.153	16.635
5.123	16.982
5.093	17.348
5.063	17.663
5.033	17.96
5.004	18.292
4.975	18.623
4.947	18.97
4.919	19.296
4.891	19.584
4.863	19.863
4.836	20.149
4.809	20.424
4.782	20.671
4.756	20.937
4.73	21.167
4.704	21.413
4.679	21.633
4.654	21.86
4.629	22.101
4.604	22.306
4.58	22.472
4.556	22.612
4.532	22.748
4.508	22.844
4.485	22.918
4.461	22.979
4.439	23.061
4.416	23.108
4.393	23.148
4.371	23.207
4.349	23.266
4.327	23.322
4.306	23.389
4.284	23.452
4.263	23.435
4.242	23.513
4.222	23.502
4.201	23.444
4.181	23.437
4.161	23.429
4.141	23.434
4.121	23.404
4.101	23.408
4.082	23.419
4.063	23.414
4.044	23.401
4.025	23.405
4.006	23.386
3.988	23.38
3.97	23.372
3.951	23.364
3.933	23.33
3.916	23.29
3.898	23.278
3.88	23.235
3.863	23.201
3.846	23.154
3.829	23.118
3.812	23.105
3.795	23.04
3.779	22.987
3.762	22.964
3.746	22.903
3.73	22.858
3.714	22.801
3.698	22.749
3.682	22.687
3.666	22.623
3.651	22.576
3.636	22.544
3.62	22.493
3.605	22.427
3.59	22.399
3.575	22.323
3.561	22.264
3.546	22.21
3.531	22.156
3.517	22.131
3.503	22.107
3.489	22.009
3.475	21.948
3.461	21.885
3.447	21.841
3.433	21.813
3.42	21.733
3.406	21.678
3.393	21.615
3.38	21.526
3.366	21.469
3.353	21.391
3.34	21.333
3.327	21.239
3.315	21.2
3.302	21.14
3.289	21.057
3.277	21.017
3.265	20.911
3.252	20.847
3.24	20.788
3.228	20.724
3.216	20.64
3.204	20.558
3.192	20.447
3.18	20.425
3.169	20.39
3.157	20.321
3.146	20.26
3.134	20.19
3.123	20.129
3.112	20.051
3.101	20.005
3.09	19.947
3.079	19.858
3.067	19.855
3.057	19.777
3.046	19.693
3.035	19.693
3.025	19.65
3.014	19.567
3.004	19.515
2.993	19.438
2.983	19.387
2.973	19.363
2.962	19.316
2.952	19.261
2.942	19.24
2.932	19.161
2.922	19.163
2.912	19.133
2.903	19.063
2.893	19.016
2.883	19.038
2.874	19.023
2.864	18.996
2.855	18.961
2.845	18.949
2.836	18.9
2.827	18.893
2.817	18.954
2.808	18.973
2.799	19.053
2.79	19.08
2.781	19.19
2.772	19.331
2.763	19.528
2.755	19.703
2.746	19.796
2.737	19.938
2.728	20.031
2.72	20.256
2.711	20.265
2.703	20.257
2.695	20.301
2.686	20.266
2.678	20.284
2.67	20.351
2.661	20.244
2.653	20.19
2.645	20.185
2.637	20.134
2.629	20.123
2.621	20.131
2.613	20.014
2.605	20.031
2.597	19.973
2.59	19.886
2.582	19.855
2.574	19.793
2.566	19.735
2.559	19.669
2.551	19.651
2.544	19.607
2.536	19.573
2.529	19.506
2.522	19.449
2.514	19.418
2.507	19.35
2.5	19.317
2.492	19.243
2.485	19.201
2.478	19.198
2.471	19.129
2.464	19.093
2.457	19.011
2.45	19.02
2.443	18.935
2.436	18.897
2.429	18.848
2.422	18.836
2.416	18.81
2.409	18.718
2.402	18.675
2.396	18.67
2.389	18.592
2.382	18.58
2.376	18.511
2.369	18.492
2.363	18.409
2.356	18.354
2.35	18.358
2.344	18.286
2.337	18.211
2.331	18.199
2.325	18.115
2.318	18.113
2.312	18.08
2.306	17.986
2.3	17.973
2.294	17.942
2.288	17.879
2.282	17.839
2.276	17.813
2.27	17.763
2.264	17.747
2.258	17.692
2.252	17.596
2.246	17.594
2.24	17.525
2.235	17.454
2.229	17.431
2.223	17.394
2.217	17.358
2.212	17.295
2.206	17.283
2.2	17.233
2.195	17.214
2.189	17.137
2.184	17.122
2.178	17.076
2.173	17.063
2.167	16.973
2.162	16.984
2.156	16.925
2.151	16.857
2.146	16.774
2.14	16.854
2.135	16.779
2.13	16.785
2.125	16.708
2.119	16.746
2.114	16.622
2.109	16.622
2.104	16.557
2.099	16.52
2.094	16.498
2.089	16.403
2.084	16.477
