Name: Alunite (ammonioalunite) NH4Al3(SO4)2(OH)6
Type: Mineral (Synthetic)
Class: Sulfates
Particle Size: Fine (less than 2 Micrometers)
Sample No.: alunite.1
Owner: JHU
Wavelength Range: IR
Origin: Sample from Dennis Krohn, USGS; synthesized by Phil Bethke,
Description: The sample consisted of a very small (several microg)
Measurement: Transmission
X Units: Wavelength (micrometers)
Y Units: Transmittance (percent)
wavelength	value
25.044	67.0389
24.339	47.9335
23.672	38.2733
23.041	52.4549
22.442	62.0164
21.874	58.0389
21.334	62.1815
20.82	62.8734
20.33	56.7948
19.863	58.7606
19.416	50.8739
18.99	48.6395
18.581	54.8653
18.19	49.9083
17.815	39.2753
17.455	26.4794
17.109	13.1164
16.777	7.9016
16.458	8.8342
16.15	6.4429
15.854	8.3967
15.568	16.332
15.292	18.77
15.027	6.3408
14.77	8.6455
14.521	12.9814
14.281	22.0414
14.049	33.4521
13.824	42.5077
13.607	48.8146
13.396	54.2196
13.191	58.1026
12.993	60.9305
12.8	63.2115
12.614	65.6575
12.432	68.2606
12.256	69.8194
12.084	71.7554
11.918	74.0716
11.755	75.8201
11.598	76.8943
11.444	77.7613
11.294	78.2239
11.149	78.406
11.007	78.3191
10.868	77.5301
10.733	76.5896
10.602	74.835
10.473	72.2195
10.348	68.8372
10.225	64.4349
10.106	58.5829
9.989	51.2049
9.875	39.933
9.763	20.7951
9.654	23.3935
9.547	13.1679
9.443	5.3013
9.341	2.2319
9.241	3.5498
9.143	6.1352
9.047	10.747
8.954	18.2236
8.862	26.2563
8.772	31.9091
8.684	28.9438
8.597	36.8512
8.513	43.1969
8.43	43.934
8.348	41.1581
8.268	37.018
8.19	28.3498
8.113	20.7075
8.037	20.2993
7.963	30.1042
7.891	46.9833
7.819	59.6341
7.749	66.7437
7.68	71.1339
7.613	74.1836
7.546	76.6558
7.481	78.3797
7.417	79.6165
7.353	80.1504
7.291	79.5987
7.23	77.6624
7.17	73.1048
7.111	65.1737
7.053	53.0731
6.996	39.6405
6.94	43.039
6.885	55.3724
6.83	65.2159
6.777	72.1077
6.724	75.6077
6.672	78.6001
6.621	80.5298
6.571	81.9402
6.521	82.887
6.472	83.8723
6.424	84.1712
6.377	84.4807
6.33	84.7454
6.284	84.9553
6.238	84.7915
6.194	84.3306
6.15	84.1211
6.106	83.5274
6.063	83.4344
6.021	84.1453
5.979	85.1856
5.938	85.4102
5.898	86.3086
5.858	87.188
5.818	87.8819
5.779	88.3076
5.741	88.97
5.703	89.7781
5.666	90.259
5.629	90.5962
5.592	90.7637
5.556	91.0735
5.521	91.3508
5.486	91.6275
5.451	91.8858
5.417	91.969
5.383	92.1055
5.35	92.2654
5.317	92.4273
5.285	92.603
5.252	92.6982
5.221	92.7661
5.189	92.9321
5.158	93.0474
5.128	93.0947
5.097	93.2124
5.068	93.2556
5.038	93.3252
5.009	93.4126
4.98	93.4385
4.951	93.4558
4.923	93.4114
4.895	93.2463
4.868	93.1736
4.84	93.1304
4.814	92.5911
4.787	91.2322
4.76	91.0264
4.734	91.0706
4.709	91.2495
4.683	90.9226
4.658	90.0076
4.633	89.6555
4.608	89.7981
4.584	90.2666
4.56	90.7017
4.536	91.0166
4.512	91.0945
4.488	91.0227
4.465	91.1321
4.442	91.3272
4.42	91.4949
4.397	91.6292
4.375	92.0159
4.353	92.6228
4.331	93.408
4.309	93.8811
4.288	94.374
4.267	94.6309
4.246	94.991
4.225	94.9885
4.205	94.0291
4.184	93.6926
4.164	93.7131
4.144	93.7327
4.124	93.5674
4.105	93.5886
4.085	93.696
4.066	93.6731
4.047	93.7373
4.028	93.7561
4.009	93.8518
3.991	93.6516
3.973	93.7449
3.954	93.7683
3.936	93.6965
3.918	93.5833
3.901	93.5237
3.883	93.5271
3.866	93.2703
3.849	93.4075
3.832	93.3313
3.815	93.24
3.798	93.2283
3.781	93.0256
3.765	93.0276
3.748	92.9107
3.732	92.7136
3.716	92.6443
3.7	92.4226
3.685	92.2363
3.669	92.0413
3.653	91.7825
3.638	91.6409
3.623	91.4902
3.608	91.1594
3.593	90.885
3.578	90.4719
3.563	90.2127
3.548	89.7869
3.534	89.3264
3.519	88.7659
3.505	87.4973
3.491	87.6365
3.477	87.7227
3.463	87.7317
3.449	87.3489
3.435	86.6843
3.422	85.5178
3.408	85.5803
3.395	85.6175
3.382	85.4285
3.369	84.9641
3.355	84.2869
3.342	83.8089
3.33	83.2879
3.317	82.5166
3.304	81.9534
3.292	81.3819
3.279	80.5904
3.267	79.4793
3.254	78.4361
3.242	77.1575
3.23	76.1485
3.218	75.6177
3.206	75.0335
3.194	74.4466
3.182	73.6026
3.171	72.6483
3.159	71.3592
3.148	69.962
3.136	68.2445
3.125	66.2374
3.114	63.9515
3.102	61.2762
3.091	58.3934
3.08	54.849
3.069	50.597
3.058	46.3485
3.048	42.9735
3.037	40.8671
3.026	39.0658
3.016	38.2941
3.005	39.8165
2.995	43.4835
2.985	47.4052
2.974	51.1044
2.964	53.9457
2.954	55.6346
2.944	56.0245
2.934	55.4339
2.924	54.3885
2.914	52.6161
2.904	50.6083
2.895	47.7958
2.885	44.3026
2.875	38.0292
2.866	28.1581
2.856	18.4804
2.847	8.9905
2.838	10.8027
2.828	14.3674
2.819	23.1801
2.81	37.0373
2.801	49.1122
2.792	57.0858
2.783	63.1414
2.774	68.4405
2.765	72.702
2.756	75.4451
2.747	78.7706
2.739	82.2439
2.73	83.1297
2.721	84.449
2.713	85.7884
2.704	87.0794
2.696	87.8714
2.687	88.4007
2.679	88.9822
2.671	89.7507
2.663	90.0628
2.654	90.426
2.646	90.7918
2.638	90.9544
2.63	90.9939
2.622	91.5901
2.614	91.9158
2.606	92.0496
2.599	92.199
2.591	92.2439
2.583	92.5017
2.575	92.6804
2.568	92.3621
2.56	92.3884
2.553	92.4636
2.545	92.8611
2.538	92.8396
2.53	92.7424
2.523	92.9631
2.515	92.9168
2.508	92.6936
2.501	92.8323
2.494	92.9587
2.486	93.0252
2.479	93.0896
2.472	93.1755
2.465	93.447
2.458	93.6409
2.451	93.3826
2.444	93.512
2.437	93.0842
2.43	93.5291
2.424	93.6467
2.417	93.9265
2.41	93.7166
2.403	93.926
2.397	94.0027
2.39	93.6174
2.384	93.866
2.377	94.0608
2.37	94.0779
2.364	94.0081
2.358	93.9695
2.351	94.0159
2.345	94.1995
2.338	94.2195
2.332	93.9041
2.326	94.0505
2.32	94.2092
2.313	94.2908
2.307	94.0164
2.301	94.176
2.295	94.3591
2.289	94.2444
2.283	94.0505
2.277	94.2048
2.271	94.137
2.265	94.0193
2.259	94.4045
2.253	94.115
2.247	94.3284
2.241	93.8396
2.236	93.9534
2.23	94.0125
2.224	94.3064
2.218	93.9832
2.213	93.738
2.207	93.7117
2.201	93.2752
2.196	93.9294
2.19	93.4978
2.185	93.697
2.179	93.3044
2.174	93.1853
2.168	93.2791
2.163	93.3806
2.157	93.1375
2.152	93.5193
2.147	93.5046
2.141	93.2253
2.136	93.4363
2.131	92.9783
2.126	92.7878
2.12	92.9255
2.115	92.3445
2.11	92.9812
2.105	92.8953
2.1	92.7664
2.095	92.7351
2.09	92.8347
2.085	93.1375
2.079	92.9763
