Name: Dark brown fine sandy loam
Type: Soils
Class: Inceptisol
Subclass: Haplumbrept
Particle Size: see additional information
Sample No.: 86P4561
Owner: JHU
Origin: Haywood Co. NC. via USDA Soil Conservation service.
Description: Dark brown fine sandy loam (sandy-skeletal, mixed,
Measurement: Directional (10 degree) hemispherical reflectance
X Units: Wavelength (micrometers)
Y Units: Reflectance (percent)
wavelength	value
14.011	1.5186
13.715	1.582
13.43	1.6538
13.158	1.6877
12.896	1.9853
12.644	1.885
12.402	1.8096
12.169	1.6494
11.945	1.8735
11.729	2.2007
11.52	2.439
11.319	2.6018
11.125	2.7368
10.937	2.7214
10.756	2.6926
10.58	2.8096
10.41	3.2385
10.245	3.5508
10.086	3.7656
9.931	4.1152
9.781	4.3003
9.636	4.6191
9.495	4.3743
9.358	5.0068
9.225	5.3276
9.095	5.1438
8.969	4.9365
8.847	4.9849
8.727	4.7129
8.612	3.9451
8.499	4.8972
8.389	5.1064
8.281	5.0976
8.177	4.5478
8.075	3.332
7.976	2.5017
7.879	2.0391
7.784	1.8926
7.692	1.8123
7.601	1.7344
7.513	1.6765
7.427	1.6577
7.343	1.6125
7.261	1.5723
7.18	1.5825
7.102	1.6216
7.025	1.6299
6.949	1.7275
6.875	1.8008
6.803	1.9617
6.733	2.28
6.663	2.2754
6.596	2.1279
6.529	2.0452
6.464	1.9539
6.4	1.8579
6.338	1.7871
6.276	1.7153
6.216	1.6504
6.157	1.5444
6.099	1.5249
6.042	1.4763
5.986	1.5974
5.931	1.7759
5.878	2.0444
5.825	2.3979
5.773	2.803
5.722	3.437
5.672	4.1614
5.623	4.6753
5.574	5.3271
5.527	6.0622
5.48	6.6076
5.434	6.9702
5.389	6.9402
5.345	6.8794
5.301	7.1782
5.258	7.5754
5.215	8.0737
5.174	8.3557
5.133	8.4763
5.093	8.6011
5.053	8.6614
5.014	8.7402
4.975	8.9328
4.937	9.2937
4.9	9.8152
4.863	10.5395
4.827	10.9543
4.791	11.2619
4.756	11.5317
4.721	11.7375
4.687	11.717
4.654	12.0559
4.62	12.5039
4.588	12.8425
4.556	12.988
4.524	12.9204
4.492	12.6259
4.461	12.6899
4.431	12.9773
4.401	13.2575
4.371	13.5522
4.342	13.6743
4.313	13.6821
4.284	13.5317
4.256	13.6352
4.229	13.5056
4.201	13.5827
4.174	13.573
4.147	13.4714
4.121	13.3777
4.095	13.2729
4.069	13.1692
4.044	12.9763
4.019	12.8205
3.994	12.7016
3.97	12.6003
3.945	12.4675
3.921	12.3618
3.898	12.1965
3.875	12.0334
3.852	11.813
3.829	11.6201
3.806	11.3913
3.784	11.1618
3.762	10.8525
3.74	10.5876
3.719	10.2932
3.698	10.0202
3.677	9.7356
3.656	9.4577
3.636	9.1806
3.615	8.8559
3.595	8.518
3.575	8.2136
3.556	7.8459
3.536	7.4736
3.517	6.8181
3.498	6.2197
3.479	6.1557
3.461	5.9153
3.442	5.5664
3.424	4.9846
3.406	4.9253
3.388	5.0517
3.371	5.0359
3.353	5.0864
3.336	5.0679
3.319	4.9116
3.302	4.7944
3.285	4.6565
3.269	4.4126
3.252	4.2737
3.236	4.0925
3.22	3.9866
3.204	3.8406
3.188	3.7146
3.173	3.6201
3.157	3.4822
3.142	3.333
3.127	3.2544
3.112	3.1684
3.097	3.1018
3.082	3.0227
3.067	2.9993
3.053	2.915
3.039	2.8635
3.025	2.7961
3.011	2.7851
2.997	2.7681
2.983	2.6721
2.969	2.6645
2.956	2.6455
2.942	2.6233
2.929	2.6196
2.916	2.615
2.903	2.6018
2.89	2.6423
2.877	2.7226
2.864	2.8684
2.852	2.8691
2.839	2.8848
2.827	2.9988
2.814	3.2192
2.802	3.3193
2.79	3.4324
2.778	3.5395
2.766	3.4834
2.755	3.6943
2.743	4.5305
2.731	5.5652
2.72	7.115
2.708	7.7702
2.697	10.9138
2.686	17.7417
2.675	20.7412
2.664	22.3037
2.653	24.134
2.642	25.1552
2.632	25.3017
2.621	25.8915
2.61	26.4328
2.6	26.7031
2.59	26.8679
2.579	27.0224
2.569	27.1222
2.559	27.2294
2.549	27.2702
2.539	27.3947
2.529	27.3674
2.519	27.426
2.509	27.5087
2.5	27.5615
2.49	27.6415
2.481	27.9325
2.471	28.163
2.462	28.4579
2.452	28.759
2.443	29.0243
2.434	29.3444
2.425	29.7333
2.416	30.0121
2.407	30.3534
2.398	30.5592
2.389	30.7018
2.38	30.7729
2.372	31.0195
2.363	31.0549
2.354	30.9858
2.346	31.0361
2.337	31.4172
2.329	31.5754
2.321	31.8791
2.312	31.9482
2.304	32.0246
2.296	32.3586
2.288	32.5846
2.28	32.8339
2.272	32.9325
2.264	33.2016
2.256	33.3327
2.248	33.5605
2.24	34.1178
2.233	34.3598
2.225	34.341
2.217	33.8796
2.21	33.1379
2.202	33.186
2.195	33.4289
2.187	33.8922
2.18	34.3683
2.173	34.6711
2.166	34.7441
2.158	34.9123
2.151	35.193
2.144	35.2309
2.137	35.317
2.13	35.3388
2.123	35.4027
2.116	35.5526
2.109	35.5922
2.102	35.5602
2.095	35.6659
2.089	35.5224
2.082	35.5863
2.06	36.0847
2.028	35.6053
1.996	35.3087
1.964	33.6729
1.932	32.2488
1.9	32.9946
1.868	37.8648
1.836	38.709
1.804	38.1996
1.772	37.934
1.74	38.1813
1.708	37.288
1.676	37.1587
1.644	37.0646
1.612	36.7694
1.58	36.4729
1.548	35.9599
1.516	35.4018
1.484	34.6531
1.452	33.7134
1.42	33.5516
1.388	32.7787
1.356	33.3511
1.324	32.9063
1.292	32.3007
1.26	31.3614
1.228	30.6068
1.196	30.0392
1.164	29.0368
1.132	28.6201
1.1	27.6229
1.068	26.3994
1.036	26.161
1.004	25.2606
0.972	24.6565
0.94	23.544
0.908	22.8554
0.876	22.2997
0.844	21.9988
0.812	21.3163
0.795	20.4823
0.787	20.3054
0.779	19.7264
0.771	19.5256
0.763	19.1801
0.755	18.6191
0.747	18.4753
0.739	18.2099
0.731	17.6321
0.723	16.9314
0.715	16.6356
0.707	16.2924
0.699	15.9908
0.691	15.3809
0.683	14.7337
0.675	14.4834
0.667	14.0065
0.659	13.5879
0.651	13.3695
0.643	12.8843
0.635	12.2835
0.627	11.7967
0.619	11.4441
0.611	11.1426
0.603	10.6209
0.595	10.2768
0.587	9.9962
0.579	9.9784
0.571	9.4937
0.563	8.9765
0.555	7.9604
0.547	7.3666
0.539	7.4413
0.531	6.7491
0.523	6.3242
0.515	5.8421
0.507	5.1313
0.499	4.6897
0.491	3.9808
0.483	3.8526
0.475	3.4848
0.467	3.1566
0.459	2.8878
0.451	2.4438
0.443	2.2815
0.435	1.9574
0.427	1.1698
0.419	0.8315
0.411	0.2962
0.403	0.1092
