Name: Tourmaline (Elbaite) Na(Li,Al)3Al6(BO3)3Si6018(OH)4
Type: Mineral
Class: Silicates
Subclass: Cycloilicates (Ring Silicates)
Particle Size: Coarse  (75 - 250  Micrometers)
Sample No.: tourmal.1
Owner: JHU
Wavelength Range: IR
Origin: Sao Jose De Brejuada, Minas Gerais, Brazil via the Smithsonian
Description: The sample was a purple, translucent, sudhedral crystal,
Measurement: Bidirectional reflectance
X Units: Wavelength (micrometers)
Y Units: Reflectance (percent)
wavelength	value
25.0442	2.8022
24.3388	3.165
23.6719	3.6758
23.0407	3.5095
22.4422	3.9412
21.8741	4.1099
21.334	3.9453
20.8199	4.345
20.33	4.9148
19.8627	5.6074
19.4163	5.7031
18.9896	5.3891
18.5812	4.9604
18.19	4.5608
17.815	4.3105
17.4551	4.2475
17.1094	4.4197
16.7772	4.8215
16.4576	4.7043
16.15	4.2478
15.8537	4.5737
15.568	3.3337
15.2925	2.4377
15.0265	2.009
14.7697	1.3191
14.5214	0.741
14.2814	0.969
14.0492	1.3491
13.8244	1.5239
13.6067	0.8
13.3957	0.8249
13.1912	0.9822
12.9929	1.1421
12.8004	1.699
12.6135	2.2539
12.432	2.3716
12.2557	1.2463
12.0843	1.0984
11.9176	1.24
11.7555	1.2837
11.5977	1.3159
11.444	1.3984
11.2944	1.5373
11.1487	1.6797
11.0067	1.8157
10.8682	2.0481
10.7332	2.3171
10.6015	2.6052
10.473	3.052
10.3476	3.5586
10.2251	4.1606
10.1056	4.5696
9.98873	4.3545
9.87458	3.8879
9.763	4.2456
9.65392	4.5564
9.54724	3.9871
9.44291	3.7947
9.34082	3.1465
9.24091	1.7134
9.14312	1.9407
9.04739	2.8147
8.95363	3.3735
8.8618	3.0908
8.77183	2.4319
8.68368	1.531
8.59727	0.8953
8.51257	0.6191
8.42951	0.5601
8.34807	0.6538
8.26819	0.8401
8.18981	1.042
8.11292	1.1892
8.03745	1.2383
7.96337	1.395
7.89064	1.5647
7.81924	1.7112
7.74911	2.0681
7.68023	2.3518
7.61256	2.2649
7.54608	1.9521
7.48074	1.6848
7.41653	1.9626
7.35341	2.1909
7.29136	1.8547
7.23034	1.3518
7.17033	1.2866
7.11132	1.0398
7.05327	0.6187
6.99616	0.3442
6.93996	0.3403
6.88467	0.2827
6.83024	0.2996
6.77667	0.4092
6.72393	0.5391
6.67201	0.5322
6.62089	0.5842
6.57054	0.7871
6.52095	0.9128
6.4721	0.9944
6.42398	1.0574
6.37657	1.1331
6.32986	1.2026
6.28382	1.2856
6.23845	1.3481
6.19373	1.3743
6.14965	1.3621
6.10619	1.3442
6.06334	1.324
6.02109	1.2676
5.97942	1.1868
5.93832	1.1487
5.89778	1.1592
5.8578	1.2048
5.81835	1.2676
5.77943	1.3435
5.74103	1.4116
5.70314	1.4858
5.66574	1.5674
5.62883	1.6262
5.5924	1.6592
5.55644	1.6311
5.52093	1.6074
5.48588	1.6269
5.45127	1.6956
5.41709	1.7654
5.38334	1.79
5.35	1.7822
5.31708	1.8127
5.28456	1.8801
5.25243	1.9778
5.2207	2.0727
5.18934	2.157
5.15836	2.2263
5.12775	2.2688
5.09749	2.2891
5.0676	2.311
5.03805	2.3181
5.00884	2.3071
4.97998	2.2593
4.95144	2.229
4.92322	2.2563
4.89533	2.3364
4.86775	2.4604
4.84048	2.6025
4.81351	2.7541
4.78684	2.883
4.76047	3.0083
4.73439	3.1252
4.70859	3.29
4.68306	3.4636
4.65782	3.583
4.63284	3.6357
4.60814	3.616
4.58369	3.574
4.5595	3.5037
4.53557	3.4075
4.51188	3.2847
4.48845	3.1577
4.46525	3.0503
4.44229	2.9558
4.41957	2.8784
4.39708	2.8093
4.37481	2.77
4.35277	2.7602
4.33096	2.7664
4.30935	2.793
4.28797	2.8352
4.26679	2.9036
4.24583	3.0049
4.22506	3.1289
4.2045	3.2849
4.18414	3.4643
4.16398	3.6567
4.14401	3.8804
4.12423	4.1123
4.10464	4.3242
4.08523	4.512
4.066	4.6824
4.04696	4.8262
4.02809	4.9448
4.0094	4.9746
3.99088	4.9126
3.97253	4.8303
3.95435	4.7644
3.93634	4.7119
3.91848	4.5757
3.90079	4.3337
3.88326	3.9609
3.86589	3.584
3.84867	3.2231
3.8316	2.9265
3.81468	2.7803
3.79791	2.7959
3.78129	2.9619
3.76482	3.1858
3.74848	3.4136
3.73229	3.553
3.71624	3.5981
3.70032	3.6213
3.68454	3.6926
3.6689	3.823
3.65338	4.0095
3.638	4.2822
3.62275	4.5398
3.60762	4.7624
3.59262	5.008
3.57775	5.4148
3.56299	5.8413
3.54836	6.1201
3.53385	6.3086
3.51945	6.4372
3.50517	6.4734
3.49101	6.4302
3.47696	6.5215
3.46303	6.7041
3.4492	6.7248
3.43549	6.6843
3.42188	6.7876
3.40838	6.9245
3.39499	7.0124
3.38171	7.031
3.36852	6.9856
3.35544	6.8638
3.34246	6.7268
3.32958	6.645
3.3168	6.6152
3.30411	6.5759
3.29153	6.531
3.27903	6.4858
3.26664	6.4341
3.25433	6.3796
3.24212	6.3225
3.23	6.2102
3.21797	6.074
3.20603	5.9023
3.19418	5.717
3.18241	5.5161
3.17074	5.3281
3.15914	5.1426
3.14763	4.9768
3.13621	4.7829
3.12487	4.5976
3.11361	4.4455
3.10243	4.3269
3.09133	4.2353
3.0803	4.1553
3.06936	4.043
3.0585	3.8535
3.04771	3.5251
3.037	3.1091
3.02636	2.7429
3.0158	2.478
3.00531	2.3257
2.99489	2.3264
2.98454	2.3914
2.97427	2.5098
2.96407	2.678
2.95393	2.7461
2.94387	2.6299
2.93387	2.3032
2.92394	1.9831
2.91408	1.7336
2.90429	1.5654
2.89456	1.4138
2.88489	1.2756
2.87529	1.2014
2.86576	1.1418
2.85628	1.156
2.84687	1.2874
2.83752	1.5269
2.82823	1.7263
2.81901	1.5366
2.80984	1.2832
2.80073	1.0327
2.79168	0.8784
2.78269	0.8733
2.77376	0.9666
2.76488	1.646
2.75606	2.8962
2.7473	2.8513
2.73859	1.7439
2.72994	3.2114
2.72134	3.2856
2.7128	4.3691
2.70431	5.4202
2.69587	5.802
2.68748	6.0871
2.67915	6.2317
2.67087	6.2361
2.66264	6.2908
2.65446	6.2395
2.64633	6.1682
2.63825	6.0776
2.63021	5.8916
2.62223	5.8498
2.6143	5.7541
2.60641	5.5832
2.59857	5.54
2.59078	5.4809
2.58304	5.4756
2.57534	5.4868
2.56768	5.4792
2.56008	5.4248
2.55251	5.4338
2.54499	5.4702
2.53752	5.5015
2.53009	5.5027
2.5227	5.5249
2.51536	5.4751
2.50806	5.4524
2.5008	5.4392
2.49358	5.4453
2.4864	5.4402
2.47927	5.5068
2.47218	5.5256
2.46512	5.6045
2.45811	5.6435
2.45114	5.6865
2.4442	5.7558
2.43731	5.8096
2.43045	5.791
2.42363	5.7124
2.41685	5.5857
2.41011	5.4531
2.40341	5.332
2.39674	5.2471
2.39011	5.3035
2.38352	5.2278
2.37696	5.0793
2.37044	5.1904
2.36395	5.6247
2.35751	6.091
2.35109	6.3579
2.34471	6.4812
2.33836	6.5124
2.33205	6.448
2.32578	6.3335
2.31953	6
2.31332	5.48
2.30714	4.8039
2.301	4.499
2.29489	5.2761
2.28881	6.4451
2.28276	6.8601
2.27675	6.8362
2.27076	6.5303
2.26481	6.0879
2.25889	5.625
2.253	5.3596
2.24714	5.4931
2.24131	5.8259
2.23551	6.2114
2.22974	6.4411
2.224	6.5119
2.21829	6.3703
2.21261	6.0264
2.20696	5.4153
2.20134	5.2627
2.19574	5.7756
2.19018	6.0918
2.18464	5.9966
2.17913	5.5561
2.17365	5.3855
2.16819	5.9182
2.16277	6.5271
2.15737	6.8528
2.15199	6.9856
2.14665	7.0766
2.14133	7.175
2.13603	7.2297
2.13077	7.2905
2.12552	7.3657
2.12031	7.4346
2.11512	7.4604
2.10995	7.4988
2.10481	7.5254
2.0997	7.5937
2.09461	7.6313
2.08954	7.6418
2.0845	7.6372
2.07948	7.688
