Name: ALH 83102
Type: Stony Meteorites
Class: Carbonaceous chondrite
Subclass: CM2
Particle Size: 0-75 micrometers
Sample No.: ALH 83102
Owner: JHU
Origin: Meteorite found in Antarctica in 1983..  Smithsonian sample USNM No.
Description: None.
Measurement: Bidirectional reflectance
X Units: Wavelength (micrometers)
Y Units: Reflectance (percent)
wavelength	value
25.044	0.7842
24.339	0.7004
23.672	0.7412
23.041	0.7119
22.442	0.8069
21.874	0.7827
21.334	0.7512
20.82	0.7061
20.33	0.6394
19.863	0.5496
19.416	0.4709
18.99	0.3416
18.581	0.3074
18.19	0.311
17.815	0.3269
17.455	0.3447
17.109	0.3672
16.777	0.3904
16.458	0.3948
16.15	0.4038
15.854	0.407
15.568	0.3875
15.292	0.3853
15.027	0.3257
14.77	0.2979
14.521	0.2686
14.281	0.2634
14.049	0.2688
13.824	0.2878
13.607	0.3042
13.396	0.3506
13.191	0.3723
12.993	0.3977
12.8	0.4509
12.614	0.4895
12.432	0.5295
12.256	0.5928
12.084	0.6301
11.918	0.6538
11.755	0.6882
11.598	0.7078
11.444	0.6812
11.294	0.6909
11.149	0.6692
11.007	0.6143
10.868	0.5752
10.733	0.5442
10.602	0.5327
10.473	0.5251
10.348	0.5149
10.225	0.5186
10.106	0.5127
9.989	0.5088
9.875	0.5171
9.763	0.5034
9.654	0.477
9.547	0.4221
9.443	0.3623
9.341	0.3088
9.241	0.2773
9.143	0.2563
9.047	0.2571
8.954	0.2698
8.862	0.2822
8.772	0.2959
8.684	0.3289
8.597	0.3574
8.513	0.3862
8.43	0.4226
8.348	0.4661
8.268	0.5371
8.19	0.634
8.113	0.7434
8.037	0.8467
7.963	0.9248
7.891	0.9985
7.819	1.0459
7.749	1.0806
7.68	1.1057
7.613	1.1233
7.546	1.1343
7.481	1.1482
7.417	1.147
7.353	1.1389
7.291	1.1208
7.23	1.1052
7.17	1.1101
7.111	1.115
7.053	1.1323
6.996	1.1379
6.94	1.1426
6.885	1.146
6.83	1.156
6.777	1.189
6.724	1.2163
6.672	1.2402
6.621	1.2617
6.571	1.2773
6.521	1.292
6.472	1.302
6.424	1.3015
6.377	1.2925
6.33	1.2727
6.284	1.2419
6.239	1.2168
6.194	1.175
6.15	1.1294
6.106	1.1287
6.063	1.1438
6.021	1.175
5.979	1.2197
5.938	1.2644
5.898	1.3262
5.858	1.3799
5.818	1.4226
5.779	1.4524
5.741	1.4785
5.703	1.4998
5.666	1.5207
5.629	1.5393
5.592	1.5466
5.556	1.55
5.521	1.5642
5.486	1.584
5.451	1.6189
5.417	1.6423
5.383	1.6584
5.35	1.6731
5.317	1.6865
5.285	1.7024
5.252	1.7124
5.221	1.7236
5.189	1.7319
5.158	1.7385
5.128	1.7451
5.098	1.7483
5.068	1.7534
5.038	1.7539
5.009	1.7595
4.98	1.7627
4.951	1.769
4.923	1.7742
4.895	1.7766
4.868	1.7837
4.84	1.7895
4.814	1.7886
4.787	1.7932
4.761	1.7983
4.734	1.804
4.709	1.8049
4.683	1.8123
4.658	1.8118
4.633	1.8203
4.608	1.8208
4.584	1.8242
4.559	1.8271
4.536	1.8252
4.512	1.8254
4.488	1.8237
4.465	1.8247
4.442	1.824
4.42	1.8254
4.397	1.8235
4.375	1.8245
4.353	1.8245
4.331	1.8223
4.309	1.8169
4.288	1.8164
4.267	1.8144
4.246	1.8149
4.225	1.8166
4.205	1.8108
4.184	1.8123
4.164	1.812
4.144	1.8066
4.124	1.8061
4.105	1.8027
4.085	1.7978
4.066	1.7969
4.047	1.7891
4.028	1.7788
4.009	1.7639
3.991	1.7395
3.973	1.7192
3.954	1.7161
3.936	1.7126
3.918	1.7141
3.901	1.7134
3.883	1.7124
3.866	1.7068
3.849	1.699
3.832	1.6882
3.815	1.6755
3.798	1.6682
3.781	1.6631
3.765	1.6594
3.748	1.6509
3.732	1.646
3.716	1.6289
3.7	1.6223
3.684	1.6101
3.669	1.5998
3.653	1.5864
3.638	1.5813
3.623	1.5686
3.608	1.5554
3.593	1.5395
3.578	1.5288
3.563	1.5151
3.548	1.4971
3.534	1.481
3.519	1.4551
3.505	1.4287
3.491	1.4033
3.477	1.384
3.463	1.373
3.449	1.3562
3.436	1.3384
3.422	1.3132
3.408	1.2996
3.395	1.2922
3.382	1.2795
3.369	1.2737
3.355	1.2725
3.342	1.2646
3.33	1.2539
3.317	1.2375
3.304	1.2263
3.292	1.2165
3.279	1.1953
3.267	1.1819
3.254	1.1628
3.242	1.1448
3.23	1.1291
3.218	1.1057
3.206	1.0889
3.194	1.0725
3.182	1.0496
3.171	1.0281
3.159	1.009
3.148	0.9856
3.136	0.9641
3.125	0.9448
3.114	0.9277
3.102	0.9092
3.091	0.8901
3.08	0.876
3.069	0.8545
3.059	0.8425
3.048	0.8252
3.037	0.8066
3.026	0.7944
3.016	0.7817
3.005	0.762
2.995	0.7527
2.985	0.738
2.974	0.7236
2.964	0.7126
2.954	0.6999
2.944	0.6909
2.934	0.677
2.924	0.6704
2.914	0.6675
2.904	0.6594
2.895	0.6455
2.885	0.6453
2.875	0.6331
2.866	0.6172
2.856	0.6099
2.847	0.5925
2.837	0.5779
2.828	0.5627
2.819	0.5395
2.81	0.5264
2.801	0.5076
2.792	0.4988
2.783	0.4854
2.774	0.469
2.765	0.4663
2.756	0.4607
2.747	0.4622
2.739	0.4612
2.73	0.4617
2.721	0.4783
2.713	0.5535
2.704	0.7739
2.696	1.1133
2.688	1.3032
2.679	1.3623
2.671	1.3896
2.663	1.3948
2.655	1.3979
2.646	1.4084
2.638	1.406
2.63	1.4141
2.622	1.4104
2.614	1.4053
2.606	1.404
2.599	1.3982
2.591	1.4016
2.583	1.3936
2.575	1.3843
2.568	1.3889
2.56	1.3838
2.553	1.3833
2.545	1.3686
2.538	1.3777
2.53	1.3667
2.523	1.3674
2.515	1.3564
2.508	1.3489
2.501	1.343
2.494	1.3433
2.486	1.3249
2.479	1.3298
2.472	1.3254
2.465	1.3218
2.458	1.3118
2.451	1.3162
2.444	1.2966
2.437	1.3027
2.43	1.3032
2.424	1.2939
2.417	1.2856
2.41	1.2878
2.403	1.3
2.397	1.293
2.39	1.2827
2.384	1.2832
2.377	1.2898
2.37	1.2759
2.364	1.2747
2.357	1.2693
2.351	1.2634
2.345	1.261
2.338	1.2432
2.332	1.2378
2.326	1.2478
2.32	1.2371
2.313	1.2478
2.307	1.2449
2.301	1.2351
2.295	1.2422
2.289	1.2493
2.283	1.2356
2.277	1.2227
2.271	1.2397
2.265	1.2249
2.259	1.2322
2.253	1.2356
2.247	1.2341
2.241	1.2322
2.236	1.2222
2.23	1.2332
2.224	1.2234
2.218	1.2146
2.213	1.218
2.207	1.228
2.201	1.2041
2.196	1.2268
2.19	1.2146
2.185	1.2114
2.179	1.2344
2.174	1.2095
2.168	1.2034
2.163	1.2153
2.157	1.209
2.152	1.209
2.147	1.219
2.141	1.2048
2.136	1.2068
2.131	1.1934
2.126	1.2002
2.12	1.2139
2.115	1.1999
2.11	1.1999
2.105	1.2043
2.1	1.2109
2.095	1.1975
2.09	1.2227
2.084	1.1853
2.079	1.1855
