Name: Diabase
Type: Rocks
Class: Igneous
Subclass: Mafic
Particle Size: Solid
Sample No.: Diabase.H2
Owner: JHU
Origin: from Jersey City, Hudson County, New Jersey, via Ward's Scientific
Description: A medium-grained gray rock consisting of plagioclase,
Measurement: Directional (10 degree) hemispherical reflectance
X Units: Wavelength (micrometers)
Y Units: Reflectance (percent)
wavelength	value
14.0112	1.733
13.7147	3.4116
13.4304	2.8214
13.1577	3.4455
12.8959	3.7141
12.6443	3.8002
12.4023	4.5417
12.1694	5.2193
11.945	6.1572
11.7289	7.312
11.5203	8.9623
11.3191	10.5252
11.1248	10.5761
10.937	11.1569
10.7555	12.0782
10.5799	12.3351
10.4099	12.2756
10.2454	11.2094
10.0859	10.8626
9.9313	11.0119
9.7814	11.4143
9.636	11.2174
9.4948	10.9989
9.3577	11.2431
9.2245	11.5872
9.095	12.0686
8.9691	11.7244
8.8467	9.7896
8.7275	7.991
8.6116	6.8875
8.4986	6.8337
8.3886	6.2573
8.2814	4.6753
8.1769	2.7372
8.075	1.7011
7.9756	1.2525
7.8786	1.0751
7.784	1.0868
7.6916	1.1414
7.6014	1.2384
7.5133	1.3621
7.4272	1.4405
7.343	1.5413
7.2607	1.6924
7.1803	1.8086
7.1016	1.8992
7.0246	2.006
6.9493	2.1047
6.8755	2.1829
6.8034	2.2647
6.7327	2.3496
6.6634	2.37
6.5956	2.4192
6.5292	2.4898
6.464	2.5322
6.4002	2.5636
6.3376	2.598
6.2762	2.6465
6.216	2.6496
6.157	2.718
6.099	2.759
6.0421	2.8455
5.9863	2.8558
5.9315	2.9717
5.8777	3.0968
5.8249	3.2194
5.773	3.3213
5.722	3.3966
5.6719	3.4964
5.6227	3.5407
5.5744	3.6291
5.5268	3.6956
5.4801	3.7624
5.4341	3.8098
5.3889	3.8335
5.3445	3.8821
5.3008	3.9607
5.2578	4.0031
5.2154	4.0943
5.1738	4.1803
5.1328	4.2636
5.0925	4.3678
5.0528	4.4512
5.0137	4.5876
4.9752	4.7062
4.9373	4.8324
4.9	4.9317
4.8632	5.0639
4.827	5.2021
4.7913	5.3078
4.7561	5.4337
4.7215	5.5542
4.6873	5.7138
4.6536	5.8903
4.6205	6.0597
4.5877	6.2243
4.5555	6.3597
4.5237	6.5189
4.4923	6.6379
4.4614	6.7444
4.4309	6.8473
4.4008	6.9729
4.3711	7.0748
4.3418	7.1894
4.3129	7.3005
4.2844	7.4212
4.2563	7.5332
4.2285	7.6127
4.2011	7.6893
4.174	7.7628
4.1473	7.8337
4.1209	7.8846
4.0949	7.9556
4.0692	8.0212
4.0438	8.0573
4.0187	8.0871
3.994	8.201
3.9695	8.2062
3.9453	8.2629
3.9214	8.299
3.8979	8.355
3.8746	8.3958
3.8515	8.4202
3.8288	8.4417
3.8063	8.5085
3.7841	8.5507
3.7621	8.5399
3.7404	8.5807
3.7189	8.6031
3.6977	8.6036
3.6767	8.6475
3.656	8.6594
3.6355	8.655
3.6152	8.662
3.5951	8.6789
3.5753	8.692
3.5557	8.6911
3.5363	8.6885
3.5171	8.5898
3.4981	8.4731
3.4793	8.5092
3.4607	8.4958
3.4423	8.4114
3.4241	8.1836
3.4061	8.2582
3.3883	8.3463
3.3707	8.3749
3.3533	8.4748
3.336	8.5057
3.3189	8.4546
3.302	8.4454
3.2853	8.3512
3.2687	8.3041
3.2523	8.2216
3.2361	8.1733
3.22	8.0556
3.204	7.9985
3.1883	7.9228
3.1727	7.7967
3.1572	7.7215
3.1419	7.634
3.1268	7.5626
3.1117	7.4709
3.0969	7.439
3.0821	7.3272
3.0675	7.2818
3.0531	7.2429
3.0388	7.2225
3.0246	7.1934
3.0105	7.0784
2.9966	7.0488
2.9828	7.0289
2.9692	6.9743
2.9556	6.9654
2.9422	6.9054
2.9289	6.9735
2.9157	6.9251
2.9027	7.0078
2.8897	7.0774
2.8769	7.0908
2.8642	7.0748
2.8516	7.1262
2.8391	7.1845
2.8267	7.2675
2.8144	7.278
2.8022	7.4268
2.7902	7.5309
2.7782	7.6863
2.7664	7.7606
2.7546	7.9306
2.7429	8.1499
2.7314	8.4231
2.7199	8.8163
2.7085	9.9295
2.6973	10.4228
2.6861	10.8072
2.675	11.0121
2.664	11.0268
2.6531	11.1
2.6423	11.092
2.6315	11.0824
2.6209	11.0182
2.6103	11.0488
2.5999	11.0055
2.5895	10.986
2.5792	10.9359
2.569	10.8966
2.5588	10.837
2.5487	10.7508
2.5388	10.7753
2.5289	10.687
2.519	10.7057
2.5093	10.6603
2.4996	10.5862
2.49	10.5637
2.4805	10.5182
2.471	10.4631
2.4616	10.5016
2.4523	10.4072
2.4431	10.4482
2.4339	10.3763
2.4248	10.2727
2.4157	10.2961
2.4068	10.2511
2.3979	10.2148
2.389	10.2851
2.3802	10.1636
2.3715	10.2054
2.3629	10.1083
2.3543	10.0909
2.3458	10.0612
2.3373	9.99
2.3289	9.9621
2.3206	9.982
2.3123	9.9731
2.3041	9.9708
2.2959	10.001
2.2878	9.9745
2.2798	9.9759
2.2718	9.8901
2.2638	9.9016
2.2559	9.9063
2.2481	9.9384
2.2403	9.8676
2.2326	9.9748
2.225	9.9122
2.2173	9.9584
2.2098	9.9161
2.2023	9.8646
2.1948	9.9431
2.1874	9.9579
2.18	10.0043
2.1727	9.926
2.1655	9.9529
2.1583	9.974
2.1511	9.9096
2.144	9.9332
2.1369	9.9483
2.1299	9.9473
2.1229	9.952
2.116	9.9651
2.1091	9.9829
2.1023	10.0329
2.0955	9.941
2.0887	10.0821
2.082	10.0169
2.06	10.2525
2.028	10.2992
1.996	10.2471
1.964	10.3447
1.932	10.1717
1.9	10.2728
1.868	10.5334
1.836	10.6842
1.804	10.9783
1.772	10.9818
1.74	10.9545
1.708	11.2102
1.676	11.4016
1.644	11.628
1.612	11.8537
1.58	12.1449
1.548	12.4041
1.516	12.4373
1.484	12.7472
1.452	13.0115
1.42	12.9021
1.388	13.1363
1.356	13.4009
1.324	13.3986
1.292	13.5176
1.26	13.5849
1.228	13.4309
1.196	13.2691
1.164	13.2385
1.132	13.1441
1.1	12.9248
1.068	12.6251
1.036	12.4675
1.004	12.3227
0.972	12.5603
0.94	12.7244
0.908	13.1466
0.876	13.595
0.844	14.0468
0.812	14.6467
0.795	14.8957
0.787	14.904
0.779	15.4367
0.771	15.3115
0.763	16.0607
0.755	15.6089
0.747	15.3244
0.739	15.6359
0.731	16.0677
0.723	15.5572
0.715	15.7783
0.707	15.7296
0.699	15.7756
0.691	15.7057
0.683	15.7014
0.675	15.5831
0.667	15.6137
0.659	15.6109
0.651	15.7601
0.643	15.9785
0.635	15.7523
0.627	15.3615
0.619	15.6684
0.611	15.6113
0.603	15.5332
0.595	15.5487
0.587	15.6952
0.579	15.6732
0.571	15.6725
0.563	15.4685
0.555	15.8253
0.547	15.7737
0.539	15.9816
0.531	15.8736
0.523	15.7965
0.515	15.7629
0.507	15.503
0.499	14.9442
0.491	15.3495
0.483	15.2521
0.475	15.2344
0.467	15.0587
0.459	14.6926
0.451	14.608
0.443	14.5017
0.435	14.2804
0.427	14.0222
0.419	13.664
0.411	13.359
0.403	13.4523
