Name: Biotite K(Mg,Fe+2)3(Al,Fe+3)Si3O10(OH,F)2
Type: Mineral
Class: Silicates
Subclass: Phyllosilicates (Mica Group)
Particle Size: Fine  (Less than 74 Micrometers)
Sample No.: biotite.1
Owner: JHU
Wavelength Range: IR
Origin: Source Smithsonian NMNH 78303 Sample from Wakefield,
Description: Sample consisted of four large (5 cm x 5 cm x 3 cm)
Measurement: Bidirectional reflectance
X Units: Wavelength (micrometers)
Y Units: Reflectance (percent)
wavelength	value
25.0442	3.1963
24.3388	2.9082
23.6719	3.3154
23.0407	3.3057
22.4422	3.498
21.8741	3.7082
21.334	4.041
20.8199	4.0137
20.33	4.0469
19.8627	4.0928
19.4163	4.1628
18.9896	4.2295
18.5812	4.2656
18.19	3.7195
17.815	2.595
17.4551	1.5718
17.1094	1.2886
16.7772	1.2524
16.4576	1.3125
16.15	1.3035
15.8537	1.3379
15.568	1.3706
15.2925	1.3252
15.0265	1.3528
14.7697	1.3542
14.5214	1.3174
14.2814	1.3686
14.0492	1.425
13.8244	1.447
13.6067	1.4546
13.3957	1.644
13.1912	1.7383
12.9929	1.9397
12.8004	2.1357
12.6135	2.24
12.432	2.2788
12.2557	2.5251
12.0843	3.3635
11.9176	3.4783
11.7555	3.1096
11.5977	2.9197
11.444	2.7754
11.2944	2.6064
11.1487	2.3232
11.0067	2.1416
10.8682	2.093
10.7332	2.0723
10.6015	2.0652
10.473	2.0488
10.3476	2.0942
10.2251	2.0901
10.1056	2.2371
9.98873	2.6421
9.87458	3.1921
9.763	3.2764
9.65392	3.1362
9.54724	3.0376
9.44291	2.946
9.34082	3.0537
9.24091	3.3267
9.14312	3.552
9.04739	3.7375
8.95363	3.4778
8.8618	2.7371
8.77183	1.8159
8.68368	1.2881
8.59727	1.2734
8.51257	1.6528
8.42951	2.261
8.34807	2.967
8.26819	3.6985
8.18981	4.3899
8.11292	4.9744
8.03745	5.4639
7.96337	5.9194
7.89064	6.3171
7.81924	6.6833
7.74911	7.0351
7.68023	7.3269
7.61256	7.5876
7.54608	7.8222
7.48074	8.021
7.41653	8.2366
7.35341	8.4853
7.29136	8.7231
7.23034	8.9997
7.17033	9.2776
7.11132	9.5571
7.05327	9.7876
6.99616	9.9836
6.93996	10.1911
6.88467	10.3935
6.83024	10.5661
6.77667	10.7636
6.72393	10.8752
6.67201	10.9428
6.62089	11.0122
6.57054	11.0276
6.52095	10.9841
6.4721	10.823
6.42398	10.6045
6.37657	10.4328
6.32986	10.2805
6.28382	10.1357
6.23845	9.9441
6.19373	9.7146
6.14965	9.5703
6.10619	9.5381
6.06334	9.625
6.02109	9.7912
5.97942	10.0283
5.93832	10.2053
5.89778	10.396
5.8578	10.5337
5.81835	10.5781
5.77943	10.7666
5.74103	10.9809
5.70314	11.1748
5.66574	11.3967
5.62883	11.6162
5.5924	11.78
5.55644	11.9277
5.52093	12.1496
5.48588	12.4052
5.45127	12.7602
5.41709	13.166
5.38334	13.6262
5.35	14.0605
5.31708	14.447
5.28456	14.6889
5.25243	14.809
5.2207	14.8593
5.18934	14.8913
5.15836	14.9011
5.12775	14.8877
5.09749	14.8579
5.0676	14.8628
5.03805	14.8891
5.00884	14.9433
4.97998	14.9914
4.95144	14.998
4.92322	14.986
4.89533	15.0405
4.86775	15.1464
4.84048	15.2785
4.81351	15.4592
4.78684	15.686
4.76047	15.9189
4.73439	16.1577
4.70859	16.3393
4.68306	16.5127
4.65782	16.717
4.63284	16.9179
4.60814	17.1018
4.58369	17.2729
4.5595	17.3823
4.53557	17.4611
4.51188	17.5063
4.48845	17.5385
4.46525	17.5686
4.44229	17.5803
4.41957	17.6127
4.39708	17.6269
4.37481	17.646
4.35277	17.6545
4.33096	17.6567
4.30935	17.6557
4.28797	17.6701
4.26679	17.6831
4.24583	17.7121
4.22506	17.7194
4.2045	17.7285
4.18414	17.7387
4.16398	17.7522
4.14401	17.7531
4.12423	17.7517
4.10464	17.7797
4.08523	17.8012
4.066	17.8049
4.04696	17.8139
4.02809	17.8044
4.0094	17.7824
3.99088	17.7221
3.97253	17.7246
3.95435	17.7351
3.93634	17.77
3.91848	17.7692
3.90079	17.781
3.88326	17.7771
3.86589	17.728
3.84867	17.7109
3.8316	17.6762
3.81468	17.6611
3.79791	17.6323
3.78129	17.5993
3.76482	17.5634
3.74848	17.5124
3.73229	17.467
3.71624	17.405
3.70032	17.3305
3.68454	17.2717
3.6689	17.1982
3.65338	17.155
3.638	17.0781
3.62275	17.0141
3.60762	16.9487
3.59262	16.862
3.57775	16.7817
3.56299	16.6955
3.54836	16.5747
3.53385	16.3989
3.51945	16.0629
3.50517	15.6023
3.49101	15.7392
3.47696	15.7912
3.46303	15.759
3.4492	15.5808
3.43549	15.3364
3.42188	14.8442
3.40838	14.8298
3.39499	15.1201
3.38171	15.1394
3.36852	15.2295
3.35544	15.2856
3.34246	15.2639
3.32958	15.2014
3.3168	15.1286
3.30411	15.061
3.29153	14.9245
3.27903	14.8181
3.26664	14.707
3.25433	14.5659
3.24212	14.4604
3.23	14.3603
3.21797	14.2651
3.20603	14.2033
3.19418	14.1643
3.18241	14.0993
3.17074	14.0444
3.15914	13.936
3.14763	13.8447
3.13621	13.7185
3.12487	13.623
3.11361	13.5332
3.10243	13.4611
3.09133	13.3969
3.0803	13.3547
3.06936	13.2822
3.0585	13.209
3.04771	13.1572
3.037	13.101
3.02636	13.028
3.0158	12.938
3.00531	12.853
2.99489	12.7861
2.98454	12.7348
2.97427	12.6518
2.96407	12.5717
2.95393	12.4902
2.94387	12.4472
2.93387	12.3696
2.92394	12.2881
2.91408	12.2666
2.90429	12.229
2.89456	12.2036
2.88489	12.1714
2.87529	12.1157
2.86576	12.0717
2.85628	12.0268
2.84687	11.9433
2.83752	11.8462
2.82823	11.6552
2.81901	11.3901
2.80984	11.1191
2.80073	10.9995
2.79168	10.7568
2.78269	10.4624
2.77376	10.5219
2.76488	10.1953
2.75606	9.8513
2.7473	9.2431
2.73859	8.0896
2.72994	7.324
2.72134	7.1767
2.7128	6.8533
2.70431	6.1694
2.69587	6.186
2.68748	9.2256
2.67915	15.7072
2.67087	17.4292
2.66264	17.8645
2.65446	17.8781
2.64633	17.8366
2.63825	17.8764
2.63021	17.9628
2.62223	18.0168
2.6143	18.0629
2.60641	18.0412
2.59857	18.1018
2.59078	18.0834
2.58304	18.0588
2.57534	18.0551
2.56768	18.0517
2.56008	18.0502
2.55251	18.0546
2.54499	18.1047
2.53752	18.1142
2.53009	18.0654
2.5227	18.0317
2.51536	17.9965
2.50806	17.9709
2.5008	17.9521
2.49358	17.9575
2.4864	17.9035
2.47927	17.8818
2.47218	17.8012
2.46512	17.7277
2.45811	17.6477
2.45114	17.59
2.4442	17.5141
2.43731	17.5283
2.43045	17.5156
2.42363	17.4943
2.41685	17.4052
2.41011	17.2954
2.40341	17.1721
2.39674	16.958
2.39011	16.8046
2.38352	16.76
2.37696	16.8176
2.37044	16.997
2.36395	17.0639
2.35751	17.101
2.35109	16.9868
2.34471	16.7207
2.33836	16.4741
2.33205	16.2597
2.32578	16.1674
2.31953	16.4545
2.31332	16.6894
2.30714	16.9091
2.301	17.1557
2.29489	17.2988
2.28881	17.4282
2.28276	17.4946
2.27675	17.5488
2.27076	17.5708
2.26481	17.5722
2.25889	17.4677
2.253	17.3085
2.24714	17.2348
2.24131	17.3808
2.23551	17.645
2.22974	17.6743
2.224	17.7099
2.21829	17.7719
2.21261	17.7168
2.20696	17.7055
2.20134	17.6665
2.19574	17.7011
2.19018	17.6601
2.18464	17.625
2.17913	17.6298
2.17365	17.6035
2.16819	17.6308
2.16277	17.6254
2.15737	17.5376
2.15199	17.5102
2.14665	17.4511
2.14133	17.4262
2.13603	17.3486
2.13077	17.3945
2.12552	17.3691
2.12031	17.3789
2.11512	17.2646
2.10995	17.2802
2.10481	17.246
2.0997	17.2158
2.09461	17.2841
2.08954	17.2236
2.0845	17.2597
2.07948	17.2211
