Name: Shale (Phosphatic)
Type: Rocks
Class: Sedimentary
Subclass: Shale
Particle Size: 0 - 75 Micrometers
Sample No.: shale.2
Owner: JHU
Wavelength Range: All
Origin: Sample No. 384,  The Hunt and Salisbury Collection at the U.S.
Description: Slightly porous sample of whitish to brown oolites of
Measurement: Directional (10 Degree) Hemispherical Reflectance
X Units: Wavelength (micrometers)
Y Units: Reflectance (percent)
wavelength	value
14.983	3.732
14.645	4.8119
14.321	5.3111
14.011	6.9598
13.715	8.2267
13.43	9.1823
13.158	10.045
12.896	9.2974
12.644	9.4954
12.402	9.8437
12.169	12.03
11.945	12.363
11.729	12.168
11.52	4.6977
11.319	9.9974
11.125	11.479
10.937	11.436
10.755	11.504
10.58	10.192
10.41	5.353
10.245	7.747
10.086	6.5977
9.931	4.2196
9.781	3.5125
9.636	4.2177
9.495	3.8883
9.358	3.6647
9.225	2.9268
9.095	3.2323
8.969	3.8416
8.847	3.5657
8.727	1.5137
8.612	0.9814
8.499	0.9203
8.389	0.9655
8.281	1.2809
8.177	1.6804
8.075	2.672
7.976	3.6645
7.879	4.882
7.784	6.2155
7.692	7.4846
7.601	8.2637
7.513	8.7553
7.427	8.555
7.343	7.3126
7.261	5.1465
7.18	2.9514
7.102	1.7472
7.025	1.1121
6.949	1.005
6.875	0.8383
6.803	1.0351
6.733	1.4574
6.663	2.1825
6.596	3.5373
6.529	5.7662
6.464	8.3423
6.4	10.285
6.338	10.637
6.276	10.413
6.216	10.119
6.157	10.412
6.099	10.893
6.042	11.831
5.986	13.987
5.931	16.715
5.878	20.803
5.825	25.695
5.773	29.556
5.722	31.594
5.672	28.462
5.623	31.009
5.574	32.467
5.527	37.032
5.48	39.518
5.434	40.41
5.389	38.783
5.345	37.268
5.301	37.971
5.258	39.423
5.215	40.516
5.174	39.353
5.133	40.003
5.093	37.221
5.053	29.785
5.014	16.034
4.975	16.046
4.937	21.497
4.9	24.022
4.863	23.097
4.827	21.699
4.791	20.155
4.756	24.148
4.721	26.195
4.687	26.043
4.654	25.774
4.62	27.106
4.588	31.78
4.556	34.067
4.524	37.704
4.492	40.756
4.461	41.979
4.431	42.629
4.401	42.565
4.371	42.606
4.342	41.736
4.313	38.764
4.284	28.757
4.256	25.86
4.229	37.566
4.201	43.048
4.174	44.601
4.147	44.955
4.121	44.618
4.095	43.651
4.069	41.857
4.044	39.531
4.019	36.219
3.994	37.423
3.97	36.049
3.945	38.52
3.921	39.466
3.898	40.199
3.875	40.594
3.852	40.769
3.829	40.668
3.806	40.407
3.784	40.007
3.762	39.576
3.74	39.121
3.719	38.685
3.698	38.158
3.677	37.534
3.656	36.741
3.636	35.848
3.615	34.937
3.595	33.985
3.575	32.908
3.556	31.657
3.536	29.995
3.517	28.607
3.498	28.044
3.479	26.755
3.461	25.451
3.442	25.251
3.424	25.137
3.406	24.662
3.388	24.272
3.371	23.609
3.353	23.411
3.336	23.039
3.319	22.468
3.302	21.82
3.285	21.169
3.269	20.566
3.252	20.057
3.236	19.476
3.22	18.916
3.204	18.376
3.188	17.833
3.173	17.381
3.157	16.88
3.142	16.492
3.127	16.089
3.112	15.769
3.097	15.493
3.082	15.237
3.067	15.084
3.053	14.899
3.039	14.85
3.025	14.715
3.011	14.568
2.997	14.521
2.983	14.388
2.969	14.387
2.956	14.433
2.942	14.505
2.929	14.716
2.916	14.909
2.903	15.246
2.89	15.576
2.877	16
2.864	16.515
2.852	17.032
2.839	17.429
2.827	17.782
2.814	19
2.802	20.348
2.79	21.931
2.778	23.87
2.766	25.879
2.755	29.216
2.743	33.638
2.731	39.227
2.72	45.282
2.708	49.329
2.697	55.627
2.686	61.694
2.675	64.197
2.664	65.76
2.653	67.411
2.642	68.455
2.632	68.793
2.621	69.426
2.61	70.091
2.6	70.484
2.59	70.689
2.579	70.814
2.569	70.876
2.559	70.898
2.549	70.682
2.539	70.455
2.529	70.539
2.519	70.739
2.509	70.842
2.5	71.013
2.49	71.119
2.481	71.382
2.471	71.683
2.462	71.98
2.452	72.378
2.443	72.831
2.434	73.235
2.425	73.604
2.416	74.245
2.407	74.777
2.398	75.334
2.389	75.705
2.38	76.043
2.372	76.355
2.363	76.615
2.354	76.831
2.346	77.208
2.337	77.605
2.329	77.98
2.321	78.223
2.312	78.369
2.304	78.565
2.296	78.647
2.288	78.709
2.28	78.59
2.272	78.563
2.264	78.661
2.256	78.742
2.248	78.767
2.24	78.852
2.233	78.952
2.225	78.983
2.217	78.891
2.21	78.791
2.202	78.887
2.195	79.123
2.187	79.211
2.18	79.326
2.173	79.248
2.166	79.256
2.158	79.226
2.151	79.041
2.144	79.161
2.137	79.057
2.13	79.034
2.123	78.77
2.116	78.723
2.109	78.672
2.102	78.679
2.095	78.541
2.089	78.48
2.082	78.294
2.06	78.118
2.028	76.803
1.996	74.196
1.964	71.923
1.932	69.153
1.9	74.603
1.868	76.682
1.836	79.642
1.804	79.567
1.772	78.363
1.74	77.87
1.708	78.4
1.676	77.907
1.644	76.918
1.612	76.615
1.58	76.427
1.548	75.693
1.516	75.05
1.484	73.496
1.452	72.097
1.42	71.055
1.388	72.415
1.356	70.729
1.324	71.21
1.292	70.435
1.26	69.157
1.228	68.262
1.196	66.368
1.164	64.319
1.132	63.578
1.1	62.543
1.068	61.273
1.036	59.253
1.004	57.621
0.972	55.908
0.94	54.358
0.908	52.163
0.876	50.225
0.844	48.534
0.812	46.714
0.795	45.709
0.787	45.125
0.779	44.632
0.771	43.624
0.763	43.041
0.755	42.171
0.747	41.863
0.739	41.198
0.731	40.729
0.723	39.53
0.715	39.272
0.707	38.61
0.699	40.228
0.691	36.918
0.683	36.434
0.675	35.933
0.667	35.093
0.659	34.513
0.651	34.166
0.643	33.304
0.635	32.8
0.627	32.098
0.619	31.461
0.611	30.784
0.603	30.172
0.595	30.232
0.587	29.408
0.579	29.164
0.571	28.654
0.563	28.046
0.555	27.014
0.547	26.608
0.539	25.918
0.531	25.535
0.523	24.789
0.515	24.17
0.507	23.384
0.499	22.866
0.491	22.275
0.483	21.684
0.475	20.944
0.467	20.54
0.459	20.123
0.451	19.855
0.443	19.217
0.435	18.316
0.427	17.611
0.419	17.009
0.411	16.317
0.403	15.805
