Name: Prehnite Ca2Al2Si3O10(OH)2
Type: Mineral
Class: Silicates
Subclass: Phyllosilicates (Sheet Silicates); (Chlorite Group)
Particle Size: Course  (75 - 250  Micrometers)
Sample No.: prehnite.1
Owner: JHU
Wavelength Range: IR
Origin: Paterson, New Jersey, USA via Norma Vergo
Description: The sample consisted of a cluster of light green,
Measurement: Bidirectional reflectance
X Units: Wavelength (micrometers)
Y Units: Reflectance (percent)
wavelength	value
25.0442	3.0439
24.3388	3.2217
23.6719	3.3074
23.0407	3.5918
22.4422	3.6572
21.8741	3.4448
21.334	3.6225
20.8199	4.6933
20.33	4.8286
19.8627	2.9477
19.4163	2.6448
18.9896	2.7412
18.5812	3.2734
18.19	3.1831
17.815	2.104
17.4551	0.7578
17.1094	0.428
16.7772	0.5764
16.4576	0.6721
16.15	0.8335
15.8537	0.9729
15.568	0.978
15.2925	1.114
15.0265	1.1377
14.7697	1.2231
14.5214	1.3415
14.2814	1.4936
14.0492	1.6477
13.8244	1.8977
13.6067	2.3916
13.3957	2.8274
13.1912	3.1287
12.9929	2.7297
12.8004	1.2673
12.6135	1.2444
12.432	1.3811
12.2557	1.5469
12.0843	1.3896
11.9176	1.4065
11.7555	1.5303
11.5977	1.7519
11.444	1.7642
11.2944	1.7798
11.1487	1.9878
11.0067	2.3452
10.8682	2.9104
10.7332	3.4167
10.6015	3.3074
10.473	2.8569
10.3476	3.1767
10.2251	3.7471
10.1056	4.8105
9.98873	5.6391
9.87458	6.4162
9.763	6.6221
9.65392	5.4055
9.54724	3.5364
9.44291	2.74
9.34082	4.6311
9.24091	6.4353
9.14312	5.9443
9.04739	5.1919
8.95363	4.4509
8.8618	3.7192
8.77183	3.1267
8.68368	2.1777
8.59727	1.1443
8.51257	0.4761
8.42951	0.228
8.34807	0.1648
8.26819	0.2019
8.18981	0.2603
8.11292	0.3218
8.03745	0.3835
7.96337	0.4514
7.89064	0.5124
7.81924	0.5764
7.74911	0.6475
7.68023	0.7222
7.61256	0.7993
7.54608	0.8677
7.48074	0.9319
7.41653	0.9587
7.35341	0.9849
7.29136	1.0051
7.23034	1.0215
7.17033	1.0356
7.11132	1.0293
7.05327	1.0061
6.99616	1.0083
6.93996	1.0054
6.88467	0.9915
6.83024	1.0127
6.77667	1.033
6.72393	1.0439
6.67201	1.0454
6.62089	1.0283
6.57054	1.0161
6.52095	0.9995
6.4721	0.9863
6.42398	0.9988
6.37657	1.0549
6.32986	1.1401
6.28382	1.2346
6.23845	1.2803
6.19373	1.3035
6.14965	1.3313
6.10619	1.3557
6.06334	1.3718
6.02109	1.3523
5.97942	1.3184
5.93832	1.2925
5.89778	1.2812
5.8578	1.2517
5.81835	1.2529
5.77943	1.3086
5.74103	1.3408
5.70314	1.3616
5.66574	1.3789
5.62883	1.4207
5.5924	1.468
5.55644	1.4788
5.52093	1.4548
5.48588	1.3694
5.45127	1.3201
5.41709	1.3647
5.38334	1.4294
5.35	1.5388
5.31708	1.7078
5.28456	1.8892
5.25243	2.1016
5.2207	2.2395
5.18934	2.2607
5.15836	2.2173
5.12775	2.1887
5.09749	2.3
5.0676	2.4607
5.03805	2.6008
5.00884	2.7417
4.97998	2.8479
4.95144	3.011
4.92322	3.2676
4.89533	3.4631
4.86775	3.583
4.84048	3.6811
4.81351	3.7429
4.78684	3.7219
4.76047	3.7519
4.73439	3.9958
4.70859	4.167
4.68306	4.3467
4.65782	4.4897
4.63284	4.5476
4.60814	4.6672
4.58369	4.8769
4.5595	4.9971
4.53557	5.0764
4.51188	5.2165
4.48845	5.345
4.46525	5.5068
4.44229	5.6748
4.41957	5.7839
4.39708	5.8672
4.37481	5.9468
4.35277	6.0102
4.33096	6.0537
4.30935	6.0967
4.28797	6.1504
4.26679	6.2068
4.24583	6.2519
4.22506	6.2732
4.2045	6.2942
4.18414	6.3125
4.16398	6.3159
4.14401	6.344
4.12423	6.3916
4.10464	6.4263
4.08523	6.4433
4.066	6.4446
4.04696	6.4343
4.02809	6.4292
4.0094	6.4133
3.99088	6.4177
3.97253	6.4292
3.95435	6.4277
3.93634	6.4685
3.91848	6.4192
3.90079	6.3296
3.88326	6.1225
3.86589	6.0422
3.84867	6.0784
3.8316	6.074
3.81468	6.1426
3.79791	6.186
3.78129	6.208
3.76482	6.1765
3.74848	6.0554
3.73229	5.9282
3.71624	5.9187
3.70032	5.9106
3.68454	5.8269
3.6689	5.7397
3.65338	5.7073
3.638	5.7065
3.62275	5.6999
3.60762	5.6723
3.59262	5.6758
3.57775	5.7512
3.56299	5.8078
3.54836	5.8315
3.53385	5.8357
3.51945	5.8266
3.50517	5.8279
3.49101	5.8701
3.47696	5.8894
3.46303	5.8733
3.4492	5.7937
3.43549	5.7041
3.42188	5.571
3.40838	5.5066
3.39499	5.5044
3.38171	5.4448
3.36852	5.3735
3.35544	5.2751
3.34246	5.1413
3.32958	4.9602
3.3168	4.7986
3.30411	4.6792
3.29153	4.6008
3.27903	4.5159
3.26664	4.4145
3.25433	4.2649
3.24212	4.1609
3.23	4.0637
3.21797	3.9827
3.20603	3.8162
3.19418	3.614
3.18241	3.4043
3.17074	3.2851
3.15914	3.2014
3.14763	3.1484
3.13621	3.1272
3.12487	3.0496
3.11361	2.9438
3.10243	2.8782
3.09133	2.8098
3.0803	2.7651
3.06936	2.7339
3.0585	2.6282
3.04771	2.4846
3.037	2.3645
3.02636	2.1953
3.0158	2.0449
3.00531	1.8625
2.99489	1.7517
2.98454	1.686
2.97427	1.6638
2.96407	1.667
2.95393	1.6172
2.94387	1.624
2.93387	1.6538
2.92394	1.5488
2.91408	1.3726
2.90429	1.2119
2.89456	1.1365
2.88489	1.071
2.87529	1.1226
2.86576	1.2144
2.85628	0.7964
2.84687	0.9014
2.83752	1.2139
2.82823	1.4861
2.81901	1.5894
2.80984	1.6003
2.80073	1.605
2.79168	1.5979
2.78269	1.6538
2.77376	1.7947
2.76488	2.03
2.75606	2.2986
2.7473	2.6565
2.73859	2.9783
2.72994	3.3015
2.72134	3.6189
2.7128	3.9773
2.70431	4.2903
2.69587	4.521
2.68748	4.6626
2.67915	4.7373
2.67087	4.7861
2.66264	4.8855
2.65446	5.0591
2.64633	5.0986
2.63825	4.8889
2.63021	4.613
2.62223	4.4524
2.6143	4.2646
2.60641	4.1179
2.59857	4.1633
2.59078	4.22
2.58304	4.1404
2.57534	3.9944
2.56768	4.0163
2.56008	4.1169
2.55251	4.2449
2.54499	4.3787
2.53752	4.3699
2.53009	4.2847
2.5227	4.4485
2.51536	4.7734
2.50806	4.9001
2.5008	4.9072
2.49358	4.9043
2.4864	4.9473
2.47927	4.9516
2.47218	4.9888
2.46512	5.1455
2.45811	5.2385
2.45114	5.2312
2.4442	5.2217
2.43731	4.979
2.43045	4.6865
2.42363	4.4267
2.41685	4.0815
2.41011	3.8359
2.40341	3.7595
2.39674	3.6208
2.39011	3.4534
2.38352	3.4692
2.37696	3.5737
2.37044	3.5273
2.36395	3.1904
2.35751	3.081
2.35109	3.281
2.34471	3.5559
2.33836	3.5747
2.33205	3.4968
2.32578	3.9277
2.31953	4.8911
2.31332	5.4468
2.30714	5.7085
2.301	5.7217
2.29489	5.6062
2.28881	5.4761
2.28276	5.3203
2.27675	5.3457
2.27076	5.52
2.26481	5.6951
2.25889	5.8428
2.253	5.8188
2.24714	5.5845
2.24131	5.3901
2.23551	5.3479
2.22974	5.5569
2.224	5.8662
2.21829	6.0859
2.21261	6.312
2.20696	6.6113
2.20134	6.7954
2.19574	6.8662
2.19018	6.8999
2.18464	6.9375
2.17913	7.0215
2.17365	7.0102
2.16819	7.073
2.16277	7.0779
2.15737	7.0996
2.15199	7.1577
2.14665	7.1904
2.14133	7.2163
2.13603	7.2026
2.13077	7.2207
2.12552	7.2629
2.12031	7.3183
2.11512	7.3279
2.10995	7.342
2.10481	7.373
2.0997	7.3825
2.09461	7.4177
2.08954	7.4526
2.0845	7.4768
2.07948	7.4924
