Name: Andradite Ca3Fe2+3 (SiO4)3
Type: Mineral
Class: Silicates
Subclass: Nesosilicates  (Isolated tetrahedra) (Garnet Group)
Particle Size: Solid
Sample No.: andradite.1
Owner: JHU
Wavelength Range: IR
Origin: Sample from Rimpfischwange, Zermatt, Valais, Switzerland,
Description: A cluster of subhedral green crystals, some coated with a
Measurement: Bidirectional Reflectance
X Units: Wavelength (micrometers)
Y Units: Reflectance (percent)
wavelength	value
25.044	42.2655
24.339	34.6234
23.672	7.457
23.041	30.0746
22.442	34.9062
21.874	19.3374
21.334	6.8496
20.82	18.633
20.33	7.2622
19.863	17.4563
19.416	30.0949
18.99	28.2228
18.581	8.0039
18.19	2.3603
17.815	3.9717
17.455	5.2334
17.109	6.2446
16.777	5.7178
16.458	6.5805
16.15	7.2251
15.854	7.6704
15.568	8.0879
15.292	8.5271
15.027	9.0166
14.77	9.3972
14.521	9.957
14.281	10.6115
14.049	11.1836
13.824	11.8781
13.607	12.6028
13.396	13.5183
13.191	14.5835
12.993	15.9648
12.8	17.9809
12.614	21.3764
12.432	28.455
12.256	30.686
12.084	32.5815
11.918	36.8161
11.755	30.0358
11.598	11.8498
11.444	20.0441
11.294	36.9162
11.149	42.5465
11.007	43.3124
10.868	43.7067
10.733	44.2702
10.602	45.5404
10.473	46.2975
10.348	45.4933
10.225	43.6766
10.106	40.7074
9.989	33.8012
9.875	20.7453
9.763	7.4604
9.654	0.8213
9.547	0.7764
9.443	1.4407
9.341	2.0276
9.241	2.4939
9.143	2.8787
9.047	3.2566
8.954	3.5713
8.862	3.8152
8.772	4.0342
8.684	4.2204
8.597	4.4106
8.513	4.5754
8.43	4.7156
8.348	4.8664
8.268	4.98
8.19	5.1218
8.113	5.2397
8.037	5.3376
7.963	5.449
7.891	5.5337
7.819	5.6369
7.749	5.727
7.68	5.8115
7.613	5.8877
7.546	5.9758
7.481	6.0317
7.417	6.1269
7.353	6.207
7.291	6.2595
7.23	6.3442
7.17	6.3772
7.111	6.4446
7.053	6.4756
6.996	6.5688
6.94	6.6484
6.885	6.7163
6.83	6.7751
6.777	6.7922
6.724	6.8135
6.672	6.8945
6.621	6.9958
6.571	7.0263
6.521	7.0578
6.472	7.1521
6.424	7.1792
6.377	7.2026
6.33	7.3083
6.284	7.345
6.238	7.3808
6.194	7.4026
6.15	7.4338
6.106	7.5095
6.063	7.5398
6.021	7.4626
5.979	7.4543
5.938	7.3061
5.898	7.3498
5.858	7.4057
5.818	7.4053
5.779	7.4331
5.741	7.4978
5.703	7.5117
5.666	7.4995
5.629	7.5073
5.592	7.5014
5.556	7.5105
5.521	7.5259
5.486	7.5393
5.451	7.5886
5.417	7.6335
5.383	7.6347
5.35	7.6631
5.317	7.678
5.285	7.7202
5.252	7.7334
5.221	7.727
5.189	7.7649
5.158	7.769
5.128	7.7815
5.097	7.8152
5.068	7.8266
5.038	7.8435
5.009	7.8721
4.98	7.8926
4.951	7.9057
4.923	7.9111
4.895	7.9446
4.868	7.9592
4.84	7.9751
4.814	7.9912
4.787	8.0063
4.76	8.0205
4.734	8.0398
4.709	8.0515
4.683	8.062
4.658	8.0737
4.633	8.0835
4.608	8.1159
4.584	8.1084
4.56	8.1181
4.536	8.1216
4.512	8.133
4.488	8.1352
4.465	8.1513
4.442	8.1623
4.42	8.1428
4.397	8.1445
4.375	8.1516
4.353	8.0578
4.331	7.8825
4.309	7.6538
4.288	7.4971
4.267	7.4192
4.246	7.2905
4.225	7.3518
4.205	7.8804
4.184	8.1821
4.164	8.1924
4.144	8.2175
4.124	8.2082
4.105	8.2143
4.085	8.1968
4.066	8.2258
4.047	8.2204
4.028	8.2356
4.009	8.2402
3.991	8.2412
3.973	8.2549
3.954	8.2595
3.936	8.2678
3.918	8.2815
3.901	8.2746
3.883	8.2832
3.866	8.2927
3.849	8.2778
3.832	8.3012
3.815	8.3
3.798	8.2961
3.781	8.3254
3.765	8.3149
3.748	8.3293
3.732	8.3174
3.716	8.3391
3.7	8.3357
3.685	8.3254
3.669	8.3298
3.653	8.3186
3.638	8.3157
3.623	8.3169
3.608	8.3139
3.593	8.303
3.578	8.3108
3.563	8.3144
3.548	8.3037
3.534	8.3227
3.519	8.3623
3.505	8.4533
3.491	8.3789
3.477	8.3528
3.463	8.3777
3.449	8.3955
3.435	8.4372
3.422	8.5664
3.408	8.4797
3.395	8.3891
3.382	8.3779
3.369	8.3567
3.355	8.3305
3.342	8.3125
3.33	8.3198
3.317	8.3157
3.304	8.3154
3.292	8.334
3.279	8.3178
3.267	8.3061
3.254	8.3203
3.242	8.3
3.23	8.3266
3.218	8.322
3.206	8.3293
3.194	8.323
3.182	8.3169
3.171	8.3015
3.159	8.2998
3.148	8.32
3.136	8.3088
3.125	8.3008
3.114	8.3086
3.102	8.2854
3.091	8.292
3.08	8.2873
3.069	8.2815
3.058	8.2827
3.048	8.279
3.037	8.2646
3.026	8.2671
3.016	8.2563
3.005	8.2534
2.995	8.2588
2.985	8.2319
2.974	8.2285
2.964	8.1963
2.954	8.1821
2.944	8.1704
2.934	8.1518
2.924	8.1543
2.914	8.126
2.904	8.1396
2.895	8.1264
2.885	8.0971
2.875	8.0635
2.866	8.0959
2.856	8.0456
2.847	8.0268
2.838	8.0295
2.828	8.0241
2.819	8.0517
2.81	7.9787
2.801	8.0058
2.792	7.8957
2.783	7.9165
2.774	7.8718
2.765	7.9211
2.756	7.893
2.747	7.8633
2.739	8.1523
2.73	7.8943
2.721	7.9555
2.713	7.8852
2.704	7.8926
2.696	7.9309
2.687	7.9573
2.679	7.9599
2.671	7.9609
2.663	8.0024
2.654	7.9736
2.646	7.9961
2.638	7.9807
2.63	8.1865
2.622	7.9563
2.614	8.0012
2.606	8.063
2.599	7.8882
2.591	7.9123
2.583	8.0888
2.575	7.9853
2.568	7.97
2.56	8.0137
2.553	7.9319
2.545	7.9057
2.538	7.9053
2.53	7.9241
2.523	7.8948
2.515	7.8789
2.508	7.9006
2.501	7.8782
2.494	7.9233
2.486	7.8935
2.479	7.8694
2.472	7.883
2.465	7.9004
2.458	7.9053
2.451	7.8921
2.444	7.8655
2.437	7.8613
2.43	7.8498
2.424	7.8186
2.417	7.8215
2.41	7.8388
2.403	7.8374
2.397	7.7959
2.39	7.8252
2.384	7.8056
2.377	7.8384
2.37	7.8086
2.364	7.8164
2.358	7.8164
2.351	7.8247
2.345	7.8325
2.338	7.7993
2.332	7.7803
2.326	7.8281
2.32	7.7842
2.313	7.7641
2.307	7.7627
2.301	7.7539
2.295	7.7471
2.289	7.7583
2.283	7.7602
2.277	7.7329
2.271	7.7563
2.265	7.7446
2.259	7.7446
2.253	7.772
2.247	7.7646
2.241	7.7363
2.236	7.706
2.23	7.6816
2.224	7.768
2.218	7.6787
2.213	7.7451
2.207	7.7387
2.201	7.6699
2.196	7.7324
2.19	7.7353
2.185	7.7895
2.179	7.7563
2.174	7.7295
2.168	7.7212
2.163	7.7954
2.157	7.6802
2.152	7.7285
2.147	7.7246
2.141	7.7309
2.136	7.7724
2.131	7.7392
2.126	7.7344
2.12	7.7212
2.115	7.7485
2.11	7.7519
2.105	7.6606
2.1	7.7773
2.095	7.7466
2.09	7.7036
2.085	7.8213
2.079	7.7138
