Name: Sodalite Na8Al6Si6O24Cl2
Type: Mineral
Class: Silicates
Subclass: Tectosilicates (Framework silicates); Feldspathoid Group
Particle Size: Solid (fracture surface)
Sample No.: sodalite.1
Owner: JHU
Wavelength Range: IR
Origin: Bancroft, Ontario, Canada via Norma Vergo.
Description: The hand sample was a large chunk of vivid blue
Measurement: Bidirectional reflectance
X Units: Wavelength (micrometers)
Y Units: Reflectance (percent)
wavelength	value
25.0442	6.1211
24.3388	6.791
23.6719	8.9458
23.0407	18.7099
22.4422	15.4814
21.8741	6.55
21.334	18.1181
20.8199	21.1354
20.33	16.5283
19.8627	1.5337
19.4163	0.6645
18.9896	1.3237
18.5812	1.6995
18.19	2.0591
17.815	2.3008
17.4551	2.5618
17.1094	2.7493
16.7772	2.9651
16.4576	3.1479
16.15	3.3613
15.8537	3.6033
15.568	3.9184
15.2925	4.5537
15.0265	6.9917
14.7697	2.2881
14.5214	3.1096
14.2814	4.0215
14.0492	5.2192
13.8244	4.0632
13.6067	9.1001
13.3957	3.0952
13.1912	1.5078
12.9929	2.1838
12.8004	2.5657
12.6135	2.7971
12.432	3.0315
12.2557	3.2334
12.0843	3.4414
11.9176	3.6328
11.7555	3.8528
11.5977	4.0517
11.444	4.3149
11.2944	4.5942
11.1487	4.9333
11.0067	5.3364
10.8682	5.9187
10.7332	6.7153
10.6015	7.9365
10.473	10.1343
10.3476	14.8254
10.2251	21.5908
10.1056	22.3642
9.98873	23.1537
9.87458	23.0869
9.763	23.206
9.65392	23.4643
9.54724	24.4343
9.44291	24.5002
9.34082	21.7758
9.24091	18.3342
9.14312	14.7212
9.04739	11.1716
8.95363	7.6186
8.8618	3.9663
8.77183	1.5068
8.68368	0.3811
8.59727	0.1345
8.51257	0.1794
8.42951	0.2888
8.34807	0.3894
8.26819	0.5029
8.18981	0.5916
8.11292	0.6711
8.03745	0.7424
7.96337	0.8223
7.89064	0.8921
7.81924	0.9524
7.74911	1.0139
7.68023	1.0596
7.61256	1.1091
7.54608	1.1545
7.48074	1.1367
7.41653	1.2246
7.35341	1.272
7.29136	1.3184
7.23034	1.3379
7.17033	1.3679
7.11132	1.394
7.05327	1.4185
6.99616	1.4416
6.93996	1.4407
6.88467	1.4475
6.83024	1.4844
6.77667	1.5391
6.72393	1.5635
6.67201	1.5947
6.62089	1.5918
6.57054	1.5913
6.52095	1.6321
6.4721	1.6311
6.42398	1.6274
6.37657	1.6384
6.32986	1.6694
6.28382	1.677
6.23845	1.6811
6.19373	1.676
6.14965	1.6851
6.10619	1.6685
6.06334	1.6897
6.02109	1.6921
5.97942	1.7031
5.93832	1.6804
5.89778	1.6775
5.8578	1.637
5.81835	1.7251
5.77943	1.7993
5.74103	1.8328
5.70314	1.8494
5.66574	1.8769
5.62883	1.9297
5.5924	1.9812
5.55644	1.9714
5.52093	1.9851
5.48588	2.0171
5.45127	2.0676
5.41709	2.1931
5.38334	2.281
5.35	2.3306
5.31708	2.3581
5.28456	2.3728
5.25243	2.3691
5.2207	2.333
5.18934	2.1892
5.15836	2.0229
5.12775	1.9126
5.09749	2.0664
5.0676	2.1509
5.03805	2.1948
5.00884	2.2192
4.97998	2.2578
4.95144	2.1987
4.92322	2.0681
4.89533	2.0737
4.86775	2.0796
4.84048	2.1899
4.81351	2.3184
4.78684	2.4082
4.76047	2.5383
4.73439	2.6125
4.70859	2.6052
4.68306	2.6003
4.65782	2.6621
4.63284	2.748
4.60814	2.8086
4.58369	2.8542
4.5595	2.8699
4.53557	2.8992
4.51188	2.896
4.48845	2.9123
4.46525	2.9314
4.44229	2.9409
4.41957	2.9497
4.39708	2.9482
4.37481	2.9646
4.35277	2.9775
4.33096	2.9773
4.30935	2.9736
4.28797	2.926
4.26679	2.8464
4.24583	2.9751
4.22506	3.0044
4.2045	3.0259
4.18414	3.0295
4.16398	3.0344
4.14401	3.0322
4.12423	3.03
4.10464	3.0408
4.08523	3.0613
4.066	3.0649
4.04696	3.0642
4.02809	3.0671
4.0094	3.0698
3.99088	3.0696
3.97253	3.0713
3.95435	3.0657
3.93634	3.0686
3.91848	3.0735
3.90079	3.0774
3.88326	3.0889
3.86589	3.0847
3.84867	3.0784
3.8316	3.0762
3.81468	3.0725
3.79791	3.0415
3.78129	3.0112
3.76482	2.9824
3.74848	2.9993
3.73229	3.0312
3.71624	3.0434
3.70032	3.0437
3.68454	3.0403
3.6689	3.0403
3.65338	3.0388
3.638	3.0259
3.62275	3.0198
3.60762	3.008
3.59262	3.0032
3.57775	2.999
3.56299	2.9834
3.54836	2.9768
3.53385	2.9646
3.51945	2.9416
3.50517	2.908
3.49101	2.9014
3.47696	2.9038
3.46303	2.8811
3.4492	2.8596
3.43549	2.8252
3.42188	2.7817
3.40838	2.7851
3.39499	2.7871
3.38171	2.7768
3.36852	2.7781
3.35544	2.7832
3.34246	2.7761
3.32958	2.7676
3.3168	2.7383
3.30411	2.6804
3.29153	2.6313
3.27903	2.6777
3.26664	2.6736
3.25433	2.6601
3.24212	2.6367
3.23	2.6213
3.21797	2.6064
3.20603	2.6008
3.19418	2.5747
3.18241	2.5432
3.17074	2.521
3.15914	2.4973
3.14763	2.4856
3.13621	2.4614
3.12487	2.4404
3.11361	2.4316
3.10243	2.4048
3.09133	2.3774
3.0803	2.3599
3.06936	2.3374
3.0585	2.3132
3.04771	2.3091
3.037	2.2781
3.02636	2.2642
3.0158	2.2454
3.00531	2.2278
2.99489	2.209
2.98454	2.1885
2.97427	2.176
2.96407	2.1553
2.95393	2.1472
2.94387	2.124
2.93387	2.1196
2.92394	2.1018
2.91408	2.081
2.90429	2.0681
2.89456	2.043
2.88489	2.0356
2.87529	2.02
2.86576	2.0098
2.85628	1.9849
2.84687	1.9653
2.83752	1.9194
2.82823	1.9009
2.81901	1.9377
2.80984	2.0024
2.80073	2.0371
2.79168	2.0918
2.78269	2.1245
2.77376	2.1367
2.76488	2.1616
2.75606	2.1616
2.7473	2.1865
2.73859	2.2278
2.72994	2.3555
2.72134	2.4377
2.7128	2.5049
2.70431	2.5261
2.69587	2.5666
2.68748	2.5942
2.67915	2.605
2.67087	2.6128
2.66264	2.624
2.65446	2.5969
2.64633	2.6243
2.63825	2.5957
2.63021	2.574
2.62223	2.5649
2.6143	2.5444
2.60641	2.5454
2.59857	2.5063
2.59078	2.5237
2.58304	2.5024
2.57534	2.4954
2.56768	2.4893
2.56008	2.4836
2.55251	2.4507
2.54499	2.4394
2.53752	2.4482
2.53009	2.4136
2.5227	2.4194
2.51536	2.3997
2.50806	2.3909
2.5008	2.3381
2.49358	2.3342
2.4864	2.3362
2.47927	2.3098
2.47218	2.3101
2.46512	2.2834
2.45811	2.249
2.45114	2.2493
2.4442	2.2353
2.43731	2.2139
2.43045	2.1943
2.42363	2.206
2.41685	2.1943
2.41011	2.189
2.40341	2.1602
2.39674	2.1592
2.39011	2.178
2.38352	2.1499
2.37696	2.1787
2.37044	2.1567
2.36395	2.1626
2.35751	2.1518
2.35109	2.1435
2.34471	2.1318
2.33836	2.1352
2.33205	2.1514
2.32578	2.1045
2.31953	2.104
2.31332	2.1201
2.30714	2.0937
2.301	2.1103
2.29489	2.0986
2.28881	2.1138
2.28276	2.0928
2.27675	2.0801
2.27076	2.0884
2.26481	2.0557
2.25889	2.0527
2.253	2.0625
2.24714	2.0605
2.24131	2.0806
2.23551	2.083
2.22974	2.0937
2.224	2.0708
2.21829	2.0723
2.21261	2.0801
2.20696	2.0723
2.20134	2.1035
2.19574	2.0889
2.19018	2.0928
2.18464	2.1094
2.17913	2.0859
2.17365	2.1079
2.16819	2.104
2.16277	2.1064
2.15737	2.0801
2.15199	2.1152
2.14665	2.125
2.14133	2.0942
2.13603	2.1182
2.13077	2.1138
2.12552	2.1079
2.12031	2.1055
2.11512	2.0977
2.10995	2.1157
2.10481	2.1367
2.0997	2.1567
2.09461	2.1201
2.08954	2.1465
2.0845	2.1685
2.07948	2.1309
