Name: New Concord
Type: Stony Meteorites
Class: Ordinary Chondrite
Subclass: L6
Particle Size: 0-75 micrometers
Sample No.: Murray
Owner: JHU
Origin: Meteorite seen to fall in 1960.  Smithsonian sample without a catalog
Description: None.
Measurement: Bidirectional reflectance
X Units: Wavelength (micrometers)
Y Units: Reflectance (percent)
wavelength	value
25.044	1.0276
24.339	1.2537
23.672	1.0581
23.041	1.0359
22.442	0.9199
21.874	0.8245
21.334	0.8032
20.82	0.9612
20.33	1.2043
19.863	1.2236
19.416	1.2393
18.99	1.1694
18.581	1.1103
18.19	1.0884
17.815	0.9853
17.455	0.9587
17.109	0.9468
16.777	0.9519
16.458	0.9499
16.15	0.9739
15.854	0.8777
15.568	0.7488
15.292	0.7266
15.027	0.8699
14.77	0.9412
14.521	1.1008
14.281	1.2695
14.049	1.374
13.824	1.3455
13.607	1.4768
13.396	1.6335
13.191	1.852
12.993	1.9211
12.8	1.8799
12.614	1.8267
12.432	1.7432
12.256	1.6055
12.084	1.3315
11.918	1.1348
11.755	1.134
11.598	1.2263
11.444	1.4631
11.294	1.5837
11.149	1.533
11.007	1.5059
10.868	1.563
10.733	1.6182
10.602	1.5576
10.473	1.3267
10.348	1.2278
10.225	1.2703
10.106	1.1824
9.9887	1.1323
9.8746	1.1218
9.763	1.1438
9.6539	1.2519
9.5472	1.354
9.4429	1.3772
9.3408	1.2822
9.2409	1.1782
9.1431	1.1658
9.0474	1.1775
8.9536	1.1401
8.8618	1.1345
8.7718	1.123
8.6837	1.1377
8.5973	1.147
8.5126	1.2234
8.4295	1.365
8.3481	1.5679
8.2682	1.8157
8.1898	2.0417
8.1129	2.26
8.0374	2.4631
7.9634	2.6406
7.8906	2.7883
7.8192	2.9282
7.7491	3.062
7.6802	3.166
7.6126	3.2373
7.5461	3.3308
7.4807	3.4668
7.4165	3.5708
7.3534	3.6558
7.2914	3.7214
7.2303	3.7964
7.1703	3.8843
7.1113	3.9141
7.0533	3.9844
6.9962	4.1091
6.94	4.2016
6.8847	4.2519
6.8302	4.3345
6.7767	4.5574
6.7239	4.6833
6.672	4.6975
6.6209	4.6516
6.5705	4.6213
6.5209	4.5886
6.4721	4.5098
6.424	4.4016
6.3766	4.3049
6.3299	4.1902
6.2838	4.1365
6.2385	4.1411
6.1937	4.1758
6.1496	4.2629
6.1062	4.2832
6.0633	4.1614
6.0211	4.0591
5.9794	4.1333
5.9383	4.2773
5.8978	4.3889
5.8578	4.4751
5.8184	4.5552
5.7794	4.6555
5.741	4.6406
5.7031	4.5271
5.6657	4.4187
5.6288	4.4692
5.5924	4.6924
5.5564	4.8855
5.5209	4.9626
5.4859	4.9802
5.4513	5.0259
5.4171	5.1221
5.3833	5.2417
5.35	5.312
5.3171	5.334
5.2846	5.3083
5.2524	5.2851
5.2207	5.3003
5.1893	5.3074
5.1584	5.3352
5.1277	5.4175
5.0975	5.4927
5.0676	5.5644
5.038	5.6296
5.0088	5.6672
4.98	5.6973
4.9514	5.782
4.9232	5.9111
4.8953	6.0281
4.8678	6.1128
4.8405	6.188
4.8135	6.2673
4.7868	6.3486
4.7605	6.4241
4.7344	6.4856
4.7086	6.5354
4.6831	6.5903
4.6578	6.6579
4.6328	6.7226
4.6081	6.7871
4.5837	6.8386
4.5595	6.8818
4.5356	6.9177
4.5119	6.9468
4.4884	6.9719
4.4652	6.9931
4.4423	7.0115
4.4196	7.0288
4.3971	7.051
4.3748	7.0659
4.3528	7.0774
4.331	7.0893
4.3094	7.1037
4.288	7.1186
4.2668	7.1394
4.2458	7.1633
4.2251	7.1816
4.2045	7.2014
4.1841	7.2141
4.164	7.2314
4.144	7.2414
4.1242	7.2495
4.1046	7.2597
4.0852	7.2666
4.066	7.2671
4.047	7.2805
4.0281	7.2754
4.0094	7.2783
3.9909	7.2917
3.9725	7.2893
3.9544	7.2893
3.9363	7.2905
3.9185	7.2866
3.9008	7.2888
3.8833	7.2844
3.8659	7.2734
3.8487	7.2761
3.8316	7.268
3.8147	7.26
3.7979	7.2517
3.7813	7.2436
3.7648	7.2392
3.7485	7.2341
3.7323	7.2241
3.7162	7.2104
3.7003	7.195
3.6845	7.1826
3.6689	7.1667
3.6534	7.1601
3.638	7.1477
3.6227	7.1345
3.6076	7.1242
3.5926	7.0998
3.5777	7.0676
3.563	7.0303
3.5484	6.9829
3.5338	6.9226
3.5195	6.7339
3.5052	6.3916
3.491	6.4089
3.477	6.4568
3.463	6.4844
3.4492	6.3435
3.4355	6.1282
3.4219	5.7898
3.4084	5.8262
3.395	6.0525
3.3817	5.998
3.3685	6.2036
3.3554	6.4499
3.3425	6.5627
3.3296	6.5942
3.3168	6.5879
3.3041	6.5676
3.2915	6.5437
3.279	6.5122
3.2666	6.4695
3.2543	6.4338
3.2421	6.4018
3.23	6.355
3.218	6.3208
3.206	6.282
3.1942	6.24
3.1824	6.1972
3.1707	6.1648
3.1591	6.1252
3.1476	6.0906
3.1362	6.0683
3.1249	6.0305
3.1136	6
3.1024	5.9809
3.0913	5.9526
3.0803	5.9321
3.0694	5.9131
3.0585	5.8913
3.0477	5.883
3.037	5.854
3.0264	5.8332
3.0158	5.8284
3.0053	5.8042
2.9949	5.7803
2.9845	5.7737
2.9743	5.7651
2.9641	5.7556
2.9539	5.7461
2.9439	5.7536
2.9339	5.7607
2.9239	5.7715
2.9141	5.782
2.9043	5.8
2.8946	5.8252
2.8849	5.8454
2.8753	5.8728
2.8658	5.8999
2.8563	5.9306
2.8469	5.9629
2.8375	6.0051
2.8282	6.0517
2.819	6.0979
2.8098	6.1479
2.8007	6.2136
2.7917	6.2849
2.7827	6.366
2.7738	6.4409
2.7649	6.518
2.7561	6.6172
2.7473	6.7168
2.7386	6.8037
2.7299	6.9104
2.7213	6.9668
2.7128	7.0547
2.7043	7.1443
2.6959	7.1787
2.6875	7.1902
2.6791	7.1982
2.6709	7.1921
2.6626	7.2043
2.6545	7.2031
2.6463	7.1882
2.6382	7.1784
2.6302	7.1616
2.6222	7.1535
2.6143	7.1343
2.6064	7.1218
2.5986	7.1074
2.5908	7.083
2.583	7.0671
2.5753	7.0735
2.5677	7.0818
2.5601	7.0669
2.5525	7.0542
2.545	7.0354
2.5375	7.0361
2.5301	7.0215
2.5227	7.0151
2.5154	6.9863
2.5081	6.9797
2.5008	6.9597
2.4936	6.937
2.4864	6.9158
2.4793	6.9057
2.4722	6.8943
2.4651	6.876
2.4581	6.8503
2.4511	6.8364
2.4442	6.8171
2.4373	6.8044
2.4305	6.7876
2.4236	6.7585
2.4169	6.7556
2.4101	6.7554
2.4034	6.7607
2.3967	6.7378
2.3901	6.7146
2.3835	6.6843
2.377	6.6977
2.3704	6.6843
2.364	6.6767
2.3575	6.6694
2.3511	6.645
2.3447	6.6406
2.3384	6.6389
2.3321	6.6142
2.3258	6.5932
2.3195	6.5837
2.3133	6.5708
2.3071	6.5454
2.301	6.5635
2.2949	6.5495
2.2888	6.5344
2.2828	6.5449
2.2767	6.529
2.2708	6.5393
2.2648	6.5088
2.2589	6.521
2.253	6.5032
2.2471	6.4736
2.2413	6.48
2.2355	6.4773
2.2297	6.4775
2.224	6.4731
2.2183	6.4768
2.2126	6.457
2.207	6.4404
2.2013	6.4626
2.1957	6.4448
2.1902	6.4502
2.1846	6.4338
2.1791	6.4194
2.1736	6.435
2.1682	6.383
2.1628	6.3887
2.1574	6.3833
2.152	6.3987
2.1466	6.3804
2.1413	6.3762
2.136	6.3581
2.1308	6.3537
2.1255	6.3559
2.1203	6.3384
2.1151	6.3252
2.11	6.3428
2.1048	6.3318
2.0997	6.2966
2.0946	6.3176
2.0895	6.2764
2.0845	6.2849
2.0795	6.2866
