Name: Diopside CaMgSi2O6
Type: Mineral
Class: Silicates
Subclass: Inosilicates (Chain Silicates) (Pyroxene Group)
Particle Size: Fine (0-74  Micrometers)
Sample No.: diopside.2
Owner: JHU
Wavelength Range: IR
Origin: Sample from DeKalb, New York via the Smithsonian (sample
Description: Most of the 13 mm x 10 mm x 6 mm sample was clean,
Measurement: Bidirectional reflectance
X Units: Wavelength (micrometers)
Y Units: Reflectance (percent)
wavelength	value
25.0442	1.8018
24.3388	1.6077
23.6719	1.667
23.0407	1.7297
22.4422	1.7471
21.8741	1.9766
21.334	2.1396
20.8199	2.2527
20.33	1.8674
19.8627	2.0532
19.4163	2.0146
18.9896	1.8481
18.5812	1.9277
18.19	2.1443
17.815	2.3987
17.4551	2.5989
17.1094	2.3206
16.7772	1.6274
16.4576	1.1821
16.15	0.9534
15.8537	0.802
15.568	0.8274
15.2925	0.8113
15.0265	0.9473
14.7697	0.8816
14.5214	1.3813
14.2814	1.8833
14.0492	2.3555
13.8244	2.7495
13.6067	2.8923
13.3957	2.938
13.1912	2.8306
12.9929	2.8147
12.8004	2.6755
12.6135	2.4907
12.432	2.3513
12.2557	2.1284
12.0843	1.8904
11.9176	1.6702
11.7555	1.7576
11.5977	1.9922
11.444	2.0459
11.2944	2.0981
11.1487	2.1357
11.0067	2.1143
10.8682	2.1355
10.7332	1.8367
10.6015	2.0164
10.473	2.0229
10.3476	2.2168
10.2251	1.8181
10.1056	1.114
9.98873	0.9263
9.87458	1.2456
9.763	1.3757
9.65392	1.1775
9.54724	1.1174
9.44291	1.387
9.34082	1.8318
9.24091	1.9973
9.14312	2.0979
9.04739	2.217
8.95363	2.4714
8.8618	2.7388
8.77183	3.019
8.68368	2.4778
8.59727	1.7849
8.51257	1.25
8.42951	0.9846
8.34807	1.0381
8.26819	1.2534
8.18981	1.5554
8.11292	1.8489
8.03745	2.1819
7.96337	2.5749
7.89064	2.9023
7.81924	3.1604
7.74911	3.4988
7.68023	3.8237
7.61256	4.0437
7.54608	4.1943
7.48074	4.4241
7.41653	4.5932
7.35341	4.635
7.29136	4.5679
7.23034	4.6199
7.17033	4.7368
7.11132	4.8364
7.05327	5.1299
6.99616	5.3667
6.93996	5.5315
6.88467	5.6006
6.83024	5.3701
6.77667	5.1401
6.72393	4.8735
6.67201	4.5056
6.62089	4.5107
6.57054	4.3562
6.52095	4.2261
6.4721	4.2009
6.42398	4.313
6.37657	4.7444
6.32986	5.019
6.28382	5.0525
6.23845	5.2385
6.19373	5.4446
6.14965	5.4057
6.10619	5.1077
6.06334	5.3528
6.02109	5.5283
5.97942	6.0867
5.93832	7.0049
5.89778	7.8149
5.8578	7.9763
5.81835	8.0845
5.77943	8.2976
5.74103	8.2859
5.70314	8.5383
5.66574	9.0649
5.62883	9.3855
5.5924	9.4497
5.55644	9.414
5.52093	9.3791
5.48588	9.1777
5.45127	8.7683
5.41709	8.1601
5.38334	7.8227
5.35	7.6377
5.31708	7.6228
5.28456	7.4504
5.25243	7.5439
5.2207	7.675
5.18934	7.5249
5.15836	7.1938
5.12775	6.7746
5.09749	6.1028
5.0676	5.7248
5.03805	6.094
5.00884	6.7317
4.97998	6.9189
4.95144	6.9631
4.92322	7.0732
4.89533	7.1692
4.86775	7.3284
4.84048	7.6643
4.81351	8.0019
4.78684	8.3362
4.76047	8.417
4.73439	8.5713
4.70859	9.0779
4.68306	9.5229
4.65782	9.7285
4.63284	9.9885
4.60814	10.2566
4.58369	10.6093
4.5595	10.9587
4.53557	11.2387
4.51188	11.6196
4.48845	11.801
4.46525	11.9109
4.44229	11.9958
4.41957	12.0771
4.39708	12.1277
4.37481	12.1936
4.35277	12.2326
4.33096	12.2798
4.30935	12.3076
4.28797	12.3359
4.26679	12.3864
4.24583	12.4445
4.22506	12.4836
4.2045	12.5083
4.18414	12.5276
4.16398	12.5395
4.14401	12.5486
4.12423	12.5666
4.10464	12.5879
4.08523	12.6084
4.066	12.6159
4.04696	12.613
4.02809	12.5913
4.0094	12.5573
3.99088	12.4968
3.97253	12.4841
3.95435	12.5188
3.93634	12.57
3.91848	12.5935
3.90079	12.5935
3.88326	12.5847
3.86589	12.5749
3.84867	12.5713
3.8316	12.5634
3.81468	12.5664
3.79791	12.5615
3.78129	12.5637
3.76482	12.5459
3.74848	12.5334
3.73229	12.5073
3.71624	12.4968
3.70032	12.4875
3.68454	12.4646
3.6689	12.4345
3.65338	12.4199
3.638	12.4011
3.62275	12.3842
3.60762	12.3606
3.59262	12.3396
3.57775	12.2827
3.56299	12.2514
3.54836	12.1948
3.53385	12.1003
3.51945	11.8708
3.50517	11.3217
3.49101	11.3899
3.47696	11.3174
3.46303	11.4941
3.4492	11.3325
3.43549	11.0742
3.42188	10.6123
3.40838	10.5893
3.39499	10.914
3.38171	10.7219
3.36852	10.8266
3.35544	11.3359
3.34246	11.5461
3.32958	11.6528
3.3168	11.685
3.30411	11.6804
3.29153	11.6779
3.27903	11.665
3.26664	11.6347
3.25433	11.6023
3.24212	11.5632
3.23	11.5288
3.21797	11.4883
3.20603	11.445
3.19418	11.3896
3.18241	11.3427
3.17074	11.2905
3.15914	11.2304
3.14763	11.1855
3.13621	11.1264
3.12487	11.0649
3.11361	11.0212
3.10243	10.9797
3.09133	10.9297
3.0803	10.8938
3.06936	10.8593
3.0585	10.8281
3.04771	10.7937
3.037	10.7629
3.02636	10.7126
3.0158	10.656
3.00531	10.6079
2.99489	10.5525
2.98454	10.4966
2.97427	10.4509
2.96407	10.4336
2.95393	10.4485
2.94387	10.4587
2.93387	10.4814
2.92394	10.4963
2.91408	10.5083
2.90429	10.5249
2.89456	10.5508
2.88489	10.5561
2.87529	10.5815
2.86576	10.6382
2.85628	10.6943
2.84687	10.7839
2.83752	10.8501
2.82823	10.9214
2.81901	10.9607
2.80984	11.0102
2.80073	11.0473
2.79168	11.0923
2.78269	11.1438
2.77376	11.195
2.76488	11.1762
2.75606	11.2319
2.7473	11.3694
2.73859	11.3781
2.72994	11.3808
2.72134	10.0984
2.7128	11.4175
2.70431	11.844
2.69587	12.1433
2.68748	12.373
2.67915	12.4951
2.67087	12.5161
2.66264	12.6015
2.65446	12.6233
2.64633	12.6176
2.63825	12.6345
2.63021	12.5544
2.62223	12.5923
2.6143	12.5969
2.60641	12.5273
2.59857	12.5588
2.59078	12.551
2.58304	12.5122
2.57534	12.5156
2.56768	12.5088
2.56008	12.4756
2.55251	12.4509
2.54499	12.4843
2.53752	12.4546
2.53009	12.4414
2.5227	12.4196
2.51536	12.3918
2.50806	12.3913
2.5008	12.3784
2.49358	12.364
2.4864	12.3369
2.47927	12.3249
2.47218	12.3208
2.46512	12.2944
2.45811	12.3015
2.45114	12.2666
2.4442	12.2632
2.43731	12.27
2.43045	12.2585
2.42363	12.2336
2.41685	12.2551
2.41011	12.27
2.40341	12.2466
2.39674	12.2114
2.39011	12.1792
2.38352	12.1921
2.37696	12.2016
2.37044	12.2158
2.36395	12.2065
2.35751	12.2112
2.35109	12.2107
2.34471	12.2026
2.33836	12.1975
2.33205	12.1941
2.32578	12.1548
2.31953	12.1591
2.31332	12.1264
2.30714	12.175
2.301	12.2256
2.29489	12.2385
2.28881	12.25
2.28276	12.2964
2.27675	12.271
2.27076	12.2995
2.26481	12.3501
2.25889	12.331
2.253	12.3862
2.24714	12.3672
2.24131	12.4082
2.23551	12.4257
2.22974	12.4174
2.224	12.4445
2.21829	12.4756
2.21261	12.4653
2.20696	12.4878
2.20134	12.5046
2.19574	12.497
2.19018	12.5249
2.18464	12.561
2.17913	12.5615
2.17365	12.5639
2.16819	12.6074
2.16277	12.5927
2.15737	12.6259
2.15199	12.6377
2.14665	12.6484
2.14133	12.6591
2.13603	12.6801
2.13077	12.7036
2.12552	12.7297
2.12031	12.7016
2.11512	12.7229
2.10995	12.7736
2.10481	12.7385
2.0997	12.8222
2.09461	12.843
2.08954	12.833
2.0845	12.862
2.07948	12.8288
