Name: Andradite Ca3Fe2+3 (SiO4)3
Type: Mineral
Class: Silicates
Subclass: Nesosilicates  (Isolated tetrahedra) (Garnet Group)
Particle Size: Coarse (75-250 Micrometers)
Sample No.: andradite.1
Owner: JHU
Wavelength Range: IR
Origin: Sample from Rimpfischwange, Zermatt, Valais, Switzerland,
Description: A cluster of subhedral green crystals, some coated with a
Measurement: Bidirectional Reflectance
X Units: Wavelength (micrometers)
Y Units: Reflectance (percent)
wavelength	value
25.044	9.5014
24.339	7.5158
23.672	1.499
23.041	6.4487
22.442	7.845
21.874	4.0173
21.334	1.4062
20.82	3.7446
20.33	1.4812
19.863	3.5071
19.416	6.4143
18.99	5.8545
18.581	1.7441
18.19	0.477
17.815	0.8188
17.455	1.0059
17.109	1.2485
16.777	1.1111
16.458	1.3325
16.15	1.4963
15.854	1.6079
15.568	1.7231
15.292	1.8208
15.027	1.9026
14.77	1.9902
14.521	2.0908
14.281	2.1785
14.049	2.2646
13.824	2.3945
13.607	2.499
13.396	2.678
13.191	2.8779
12.993	3.1687
12.8	3.6321
12.614	4.407
12.432	6.0098
12.256	6.5259
12.084	6.8391
11.918	7.831
11.755	6.2102
11.598	2.1174
11.444	3.8581
11.294	8.0696
11.149	9.3489
11.007	9.5093
10.868	9.8034
10.733	10.1364
10.602	10.301
10.473	10.3005
10.348	10.0788
10.225	9.0696
10.106	7.344
9.989	5.4863
9.875	3.7302
9.763	1.7075
9.654	0.2139
9.547	0.0806
9.443	0.2305
9.341	0.3545
9.241	0.4634
9.143	0.5898
9.047	0.7012
8.954	0.8142
8.862	0.8357
8.772	0.8755
8.684	0.8999
8.597	0.9609
8.513	1.0432
8.43	1.1162
8.348	1.2114
8.268	1.2944
8.19	1.4558
8.113	1.5701
8.037	1.6252
7.963	1.6267
7.891	1.6555
7.819	1.6628
7.749	1.6262
7.68	1.7034
7.613	1.7908
7.546	1.8086
7.481	1.8804
7.417	1.8638
7.353	1.7468
7.291	1.7751
7.23	2.0227
7.17	2.0366
7.111	2.1804
7.053	2.5752
6.996	2.9895
6.94	3.2502
6.885	3.4634
6.83	3.5989
6.777	3.7297
6.724	3.9475
6.672	4.0889
6.621	4.154
6.571	4.1028
6.521	4.0576
6.472	3.9868
6.424	3.9421
6.377	3.8926
6.33	3.6389
6.284	3.2454
6.238	2.614
6.194	1.8904
6.15	1.625
6.106	1.4602
6.063	1.335
6.021	1.2353
5.979	1.271
5.938	1.3469
5.898	1.4158
5.858	1.522
5.818	1.6343
5.779	1.7805
5.741	1.9043
5.703	2.0586
5.666	2.0505
5.629	2.0767
5.592	1.989
5.556	1.7507
5.521	1.97
5.486	2.4441
5.451	2.5876
5.417	2.7373
5.383	3.1826
5.35	3.8035
5.317	4.2204
5.285	4.4402
5.252	4.573
5.221	4.6389
5.189	4.7173
5.158	4.8017
5.128	4.8235
5.097	4.8877
5.068	5.0542
5.038	5.1926
5.009	5.2764
4.98	5.3332
4.951	5.3745
4.923	5.4263
4.895	5.4809
4.868	5.5495
4.84	5.6196
4.814	5.6843
4.787	5.7346
4.76	5.7778
4.734	5.8059
4.709	5.8401
4.683	5.8555
4.658	5.8584
4.633	5.8691
4.608	5.8899
4.584	5.904
4.56	5.8945
4.536	5.9006
4.512	5.8996
4.488	5.8872
4.465	5.8967
4.442	5.9094
4.42	5.9014
4.397	5.8874
4.375	5.8684
4.353	5.8479
4.331	5.822
4.309	5.7937
4.288	5.7541
4.267	5.7234
4.246	5.6965
4.225	5.6811
4.205	5.6875
4.184	5.6579
4.164	5.6181
4.144	5.5439
4.124	5.4543
4.105	5.3616
4.085	5.2864
4.066	5.2412
4.047	5.2292
4.028	5.2388
4.009	5.261
3.991	5.2908
3.973	5.344
3.954	5.4006
3.936	5.4648
3.918	5.5315
3.901	5.6086
3.883	5.6765
3.866	5.7329
3.849	5.8013
3.832	5.8838
3.815	5.9929
3.798	6.1213
3.781	6.2659
3.765	6.4248
3.748	6.573
3.732	6.688
3.716	6.7685
3.7	6.7656
3.685	6.7012
3.669	6.6028
3.653	6.499
3.638	6.4006
3.623	6.3198
3.608	6.261
3.593	6.2068
3.578	6.1655
3.563	6.1369
3.548	6.1179
3.534	6.1033
3.519	6.0869
3.505	6.0578
3.491	6.0788
3.477	6.0891
3.463	6.105
3.449	6.1299
3.435	6.1592
3.422	6.1753
3.408	6.2517
3.395	6.3367
3.382	6.4084
3.369	6.4997
3.355	6.5752
3.342	6.6528
3.33	6.7268
3.317	6.8
3.304	6.8506
3.292	6.9299
3.279	6.9907
3.267	7.051
3.254	7.0962
3.242	7.1477
3.23	7.1919
3.218	7.2273
3.206	7.2627
3.194	7.2768
3.182	7.3103
3.171	7.3249
3.159	7.3523
3.148	7.3528
3.136	7.3594
3.125	7.3586
3.114	7.3601
3.102	7.3559
3.091	7.3769
3.08	7.3891
3.069	7.3669
3.058	7.3432
3.048	7.3066
3.037	7.2624
3.026	7.2097
3.016	7.1557
3.005	7.0896
2.995	7.0176
2.985	6.927
2.974	6.8315
2.964	6.7859
2.954	6.7771
2.944	6.791
2.934	6.8274
2.924	6.8474
2.914	6.8513
2.904	6.7971
2.895	6.675
2.885	6.4741
2.875	6.2141
2.866	5.9004
2.856	5.4641
2.847	4.8254
2.838	4.0256
2.828	3.1926
2.819	2.4792
2.81	1.9277
2.801	2.1477
2.792	3.366
2.783	3.9421
2.774	3.1348
2.765	4.2629
2.756	5.0964
2.747	5.9819
2.739	6.1709
2.73	6.3691
2.721	6.7561
2.713	6.8808
2.704	7.2158
2.696	7.6802
2.687	7.8882
2.679	8.0073
2.671	8.0515
2.663	8.1767
2.654	8.2353
2.646	8.2646
2.638	8.3257
2.63	8.3086
2.622	8.4043
2.614	8.3996
2.606	8.393
2.599	8.4463
2.591	8.4577
2.583	8.4455
2.575	8.4814
2.568	8.4851
2.56	8.4719
2.553	8.4621
2.545	8.4472
2.538	8.4504
2.53	8.4614
2.523	8.5014
2.515	8.5053
2.508	8.5417
2.501	8.5427
2.494	8.6015
2.486	8.6335
2.479	8.6577
2.472	8.6679
2.465	8.6679
2.458	8.6828
2.451	8.6853
2.444	8.676
2.437	8.6562
2.43	8.6101
2.424	8.6216
2.417	8.6042
2.41	8.6135
2.403	8.5996
2.397	8.6316
2.39	8.6953
2.384	8.7473
2.377	8.8032
2.37	8.8276
2.364	8.8813
2.358	8.9004
2.351	8.9179
2.345	8.9219
2.338	8.9277
2.332	8.9104
2.326	8.8994
2.32	8.9223
2.313	8.9145
2.307	8.9116
2.301	8.9089
2.295	8.8911
2.289	8.8982
2.283	8.9267
2.277	8.8921
2.271	8.8989
2.265	8.9233
2.259	8.9409
2.253	8.9438
2.247	8.9641
2.241	8.9917
2.236	9.0024
2.23	9.0088
2.224	9.0381
2.218	9.0483
2.213	9.103
2.207	9.1382
2.201	9.1367
2.196	9.1665
2.19	9.1889
2.185	9.2026
2.179	9.2011
2.174	9.2065
2.168	9.249
2.163	9.2622
2.157	9.2978
2.152	9.2915
2.147	9.2815
2.141	9.2993
2.136	9.3249
2.131	9.3257
2.126	9.3396
2.12	9.3279
2.115	9.3677
2.11	9.3928
2.105	9.3813
2.1	9.3884
2.095	9.4175
2.09	9.4468
2.085	9.4321
2.079	9.4267
