Name: Chrysotile Mg3Si2O5(OH)4
Type: Mineral
Class: Silicates
Subclass: Phyllosilicates (sheet silicates) (Serpentine/Kaplin Group)
Particle Size: Coarse  (74-250 Micrometer) - fiber bundle
Sample No.: chrysotile.1
Owner: JHU
Wavelength Range: IR
Origin: Smithsonian NMNH 91197; Sample from Kaapsche Hoop,
Description: The hand sample was fibrous, asbestiform. The sample
Measurement: Bidirectional reflectance
X Units: Wavelength (micrometers)
Y Units: Reflectance (percent)
wavelength	value
25.0442	8.2929
24.3388	8.1338
23.6719	7.3349
23.0407	12.091
22.4422	16.4326
21.8741	18.9091
21.334	20.6025
20.8199	19.5541
20.33	16.8586
19.8627	13.2563
19.4163	9.1128
18.9896	5.4438
18.5812	5.3696
18.19	5.8262
17.815	5.6042
17.4551	5.1763
17.1094	5.3708
16.7772	5.3379
16.4576	6.9121
16.15	8.2602
15.8537	10.3784
15.568	11.3405
15.2925	11.2986
15.0265	10.8279
14.7697	8.468
14.5214	4.9202
14.2814	2.5107
14.0492	1.8896
13.8244	1.9487
13.6067	2.1406
13.3957	2.605
13.1912	2.9092
12.9929	3.5339
12.8004	4.0981
12.6135	4.6391
12.432	5.1357
12.2557	5.5854
12.0843	5.9143
11.9176	6.228
11.7555	6.4453
11.5977	6.7373
11.444	7.0588
11.2944	7.4167
11.1487	7.5808
11.0067	7.4187
10.8682	7.2187
10.7332	6.749
10.6015	6.1968
10.473	6.7024
10.3476	8.0928
10.2251	9.1272
10.1056	10.0185
9.98873	12.6843
9.87458	14.0341
9.763	14.1289
9.65392	14.4397
9.54724	12.8518
9.44291	7.78
9.34082	6.4868
9.24091	7.5449
9.14312	10.0989
9.04739	12.7175
8.95363	13.5283
8.8618	8.8159
8.77183	3.397
8.68368	0.5735
8.59727	0.8154
8.51257	1.3154
8.42951	1.7954
8.34807	2.2124
8.26819	2.6406
8.18981	3.0413
8.11292	3.3743
8.03745	3.696
7.96337	3.9575
7.89064	4.198
7.81924	4.4443
7.74911	4.6968
7.68023	4.8904
7.61256	5.0295
7.54608	5.1396
7.48074	5.165
7.41653	5.3076
7.35341	5.6135
7.29136	5.6255
7.23034	5.7251
7.17033	5.9304
7.11132	6.1636
7.05327	6.436
6.99616	6.6887
6.93996	6.7588
6.88467	6.7178
6.83024	6.6814
6.77667	7.175
6.72393	7.4138
6.67201	7.551
6.62089	7.636
6.57054	7.6084
6.52095	7.4675
6.4721	7.0686
6.42398	6.6247
6.37657	6.3384
6.32986	6.2041
6.28382	6.2566
6.23845	6.6245
6.19373	6.8625
6.14965	6.8745
6.10619	7.0095
6.06334	7.3706
6.02109	7.6455
5.97942	7.8913
5.93832	8.1943
5.89778	8.5378
5.8578	8.8987
5.81835	9.2292
5.77943	9.622
5.74103	9.7671
5.70314	10.0105
5.66574	10.3547
5.62883	10.6963
5.5924	11.049
5.55644	11.3838
5.52093	11.6279
5.48588	11.8547
5.45127	12.1301
5.41709	12.1926
5.38334	12.2024
5.35	12.3015
5.31708	12.6689
5.28456	13.1958
5.25243	13.7834
5.2207	14.3679
5.18934	14.8315
5.15836	14.9174
5.12775	14.8696
5.09749	14.76
5.0676	14.58
5.03805	14.478
5.00884	14.5849
4.97998	14.968
4.95144	15.3005
4.92322	15.0752
4.89533	15.0359
4.86775	15.5661
4.84048	16.0747
4.81351	16.1984
4.78684	15.8855
4.76047	15.7739
4.73439	16.3637
4.70859	17.1096
4.68306	17.5615
4.65782	17.7187
4.63284	17.7917
4.60814	17.8901
4.58369	18.0224
4.5595	18.1684
4.53557	18.3122
4.51188	18.4956
4.48845	18.666
4.46525	18.7536
4.44229	18.8344
4.41957	18.9077
4.39708	18.9597
4.37481	19.04
4.35277	19.0898
4.33096	19.1555
4.30935	19.2136
4.28797	19.3056
4.26679	19.3789
4.24583	19.4833
4.22506	19.5529
4.2045	19.6333
4.18414	19.6997
4.16398	19.7587
4.14401	19.791
4.12423	19.8415
4.10464	19.8867
4.08523	19.9287
4.066	19.9531
4.04696	19.9477
4.02809	19.9306
4.0094	19.9055
3.99088	19.8352
3.97253	19.7734
3.95435	19.6987
3.93634	19.6171
3.91848	19.5305
3.90079	19.4274
3.88326	19.2719
3.86589	19.1071
3.84867	18.9353
3.8316	18.7878
3.81468	18.6096
3.79791	18.4328
3.78129	18.174
3.76482	17.8361
3.74848	17.4709
3.73229	17.135
3.71624	17.038
3.70032	16.9982
3.68454	16.8632
3.6689	16.8293
3.65338	16.705
3.638	16.4875
3.62275	16.146
3.60762	15.9055
3.59262	15.728
3.57775	15.5249
3.56299	15.3269
3.54836	14.9235
3.53385	14.0991
3.51945	12.5049
3.50517	10.5337
3.49101	11.5012
3.47696	11.9572
3.46303	11.9919
3.4492	11.1958
3.43549	10.2192
3.42188	8.5823
3.40838	9.1865
3.39499	10.489
3.38171	10.5202
3.36852	11.5017
3.35544	12.5232
3.34246	12.8508
3.32958	12.8757
3.3168	12.8432
3.30411	12.7917
3.29153	12.6826
3.27903	12.562
3.26664	12.4204
3.25433	12.2531
3.24212	12.1235
3.23	12.0112
3.21797	11.9624
3.20603	11.851
3.19418	11.7082
3.18241	11.5461
3.17074	11.414
3.15914	11.2722
3.14763	11.146
3.13621	10.9646
3.12487	10.8681
3.11361	10.8081
3.10243	10.7539
3.09133	10.6958
3.0803	10.6506
3.06936	10.5581
3.0585	10.4902
3.04771	10.4057
3.037	10.3554
3.02636	10.282
3.0158	10.2092
3.00531	10.1396
2.99489	10.0884
2.98454	10.0312
2.97427	9.9607
2.96407	9.8952
2.95393	9.8218
2.94387	9.7627
2.93387	9.7397
2.92394	9.7522
2.91408	9.7241
2.90429	9.7461
2.89456	9.7217
2.88489	9.593
2.87529	9.3315
2.86576	9.0102
2.85628	8.9385
2.84687	9.0434
2.83752	9.0561
2.82823	8.9311
2.81901	8.7422
2.80984	8.6152
2.80073	8.5156
2.79168	8.4194
2.78269	8.2573
2.77376	7.7055
2.76488	7.0459
2.75606	6.0073
2.7473	4.7124
2.73859	4.6216
2.72994	4.9302
2.72134	4.3091
2.7128	3.2307
2.70431	2.5496
2.69587	7.185
2.68748	9.8384
2.67915	13.997
2.67087	17.3271
2.66264	18.6086
2.65446	19.0559
2.64633	19.997
2.63825	20.9062
2.63021	21.0322
2.62223	21.2456
2.6143	21.1354
2.60641	20.8566
2.59857	20.853
2.59078	20.7023
2.58304	20.1105
2.57534	19.8349
2.56768	19.6345
2.56008	19.3862
2.55251	19.5676
2.54499	19.8916
2.53752	19.8986
2.53009	19.5285
2.5227	19.1398
2.51536	18.9917
2.50806	18.9777
2.5008	19.1037
2.49358	19.4936
2.4864	20.083
2.47927	20.3964
2.47218	20.6767
2.46512	20.8105
2.45811	20.7656
2.45114	20.6376
2.4442	20.6818
2.43731	20.4396
2.43045	20.3742
2.42363	20.4736
2.41685	21.0441
2.41011	21.1415
2.40341	21.0214
2.39674	20.9213
2.39011	21.1621
2.38352	21.0803
2.37696	21.2783
2.37044	21.998
2.36395	22.6083
2.35751	22.5129
2.35109	22.0334
2.34471	20.0957
2.33836	18.2131
2.33205	18.5356
2.32578	17.748
2.31953	18.2978
2.31332	19.5419
2.30714	20.6064
2.301	21.3476
2.29489	21.9106
2.28881	22.3486
2.28276	22.8413
2.27675	23.1386
2.27076	23.393
2.26481	23.7617
2.25889	24.352
2.253	24.5995
2.24714	24.9321
2.24131	25.3925
2.23551	25.8246
2.22974	26.2089
2.224	26.7255
2.21829	27.183
2.21261	27.3188
2.20696	27.3105
2.20134	27.35
2.19574	27.4223
2.19018	27.4628
2.18464	27.4555
2.17913	27.4228
2.17365	27.5351
2.16819	27.5868
2.16277	27.5868
2.15737	27.4706
2.15199	27.3168
2.14665	27.1513
2.14133	27.0629
2.13603	27.0146
2.13077	26.7929
2.12552	26.5898
2.12031	26.8383
2.11512	27.0136
2.10995	27.0908
2.10481	26.9648
2.0997	26.8364
2.09461	26.912
2.08954	27.0922
2.0845	27.4238
2.07948	27.5785
