Name: Gypsum (alabaster) CaSO4.2H20
Type: Mineral
Class: Sulfates
Particle Size: Solid (random sawn surface)
Sample No.: gypsum.1
Owner: JHU
Wavelength Range: IR
Origin: Pomaia, Italy via Hunt and Salisbury Collection #26B
Description: The sample was white, translucent, and appeared pure,
Measurement: Bidirectional reflectance
X Units: Wavelength (micrometers)
Y Units: Reflectance (percent)
wavelength	value
25.0442	24.1992
24.3388	24.3749
23.6719	24.3671
23.0407	24.5361
22.4422	25.29
21.8741	26.0292
21.334	26.7929
20.8199	27.0527
20.33	26.9609
19.8627	26.2665
19.4163	25.3559
18.9896	24.2929
18.5812	23.4179
18.19	22.8369
17.815	23.0961
17.4551	23.8486
17.1094	24.7089
16.7772	28.8652
16.4576	32.3446
16.15	23.0742
15.8537	18.8266
15.568	18.2641
15.2925	18.895
15.0265	23.2568
14.7697	28.7485
14.5214	23.5283
14.2814	17.0703
14.0492	15.9643
13.8244	16.4233
13.6067	16.957
13.3957	17.3945
13.1912	17.7602
12.9929	18.1455
12.8004	18.4042
12.6135	18.6486
12.432	18.8303
12.2557	19.0109
12.0843	19.177
11.9176	19.3518
11.7555	19.5859
11.5977	19.7675
11.444	19.9279
11.2944	20.0908
11.1487	20.2512
11.0067	20.4121
10.8682	20.5949
10.7332	20.7844
10.6015	20.9873
10.473	21.1987
10.3476	21.4208
10.2251	21.6359
10.1056	21.9199
9.98873	22.3674
9.87458	22.4057
9.763	22.9238
9.65392	23.4367
9.54724	24.0458
9.44291	24.8544
9.34082	25.9806
9.24091	27.602
9.14312	30.3798
9.04739	35.5265
8.95363	45.2264
8.8618	53.7882
8.77183	61.4266
8.68368	67.4801
8.59727	68.9007
8.51257	64.6214
8.42951	56.8819
8.34807	52.4296
8.26819	44.0243
8.18981	30.6054
8.11292	18.5156
8.03745	11.2346
7.96337	7.8877
7.89064	7.3745
7.81924	8.5166
7.74911	9.6391
7.68023	10.5161
7.61256	11.1821
7.54608	11.7197
7.48074	12.1508
7.41653	12.5229
7.35341	12.8481
7.29136	13.1176
7.23034	13.3125
7.17033	13.5175
7.11132	13.7197
7.05327	13.872
6.99616	14.0395
6.93996	14.1645
6.88467	14.2788
6.83024	14.3427
6.77667	14.3842
6.72393	14.4724
6.67201	14.5478
6.62089	14.6411
6.57054	14.6889
6.52095	14.7949
6.4721	14.8857
6.42398	14.978
6.37657	15.1406
6.32986	15.331
6.28382	15.601
6.23845	16.0683
6.19373	17.3183
6.14965	17.2036
6.10619	13.2866
6.06334	14.0251
6.02109	14.4672
5.97942	14.8786
5.93832	14.791
5.89778	13.6071
5.8578	14.0151
5.81835	14.1584
5.77943	14.3628
5.74103	14.5114
5.70314	14.5512
5.66574	14.5717
5.62883	14.6025
5.5924	14.6303
5.55644	14.6565
5.52093	14.666
5.48588	14.6953
5.45127	14.7165
5.41709	14.7287
5.38334	14.7573
5.35	14.7531
5.31708	14.7797
5.28456	14.7888
5.25243	14.791
5.2207	14.812
5.18934	14.8166
5.15836	14.8252
5.12775	14.823
5.09749	14.813
5.0676	14.8198
5.03805	14.8261
5.00884	14.8339
4.97998	14.8166
4.95144	14.8242
4.92322	14.8359
4.89533	14.8374
4.86775	14.875
4.84048	14.8693
4.81351	14.8725
4.78684	14.8933
4.76047	14.8908
4.73439	14.8393
4.70859	14.8169
4.68306	14.801
4.65782	14.7912
4.63284	14.8032
4.60814	14.8054
4.58369	14.7932
4.5595	14.7592
4.53557	14.7099
4.51188	14.6623
4.48845	14.6342
4.46525	14.593
4.44229	14.5412
4.41957	14.5102
4.39708	14.4926
4.37481	14.4953
4.35277	14.4729
4.33096	14.4917
4.30935	14.4985
4.28797	14.5053
4.26679	14.4985
4.24583	14.5185
4.22506	14.5129
4.2045	14.5117
4.18414	14.5244
4.16398	14.5302
4.14401	14.5315
4.12423	14.5288
4.10464	14.5249
4.08523	14.5236
4.066	14.5112
4.04696	14.4795
4.02809	14.5
4.0094	14.4746
3.99088	14.4585
3.97253	14.4416
3.95435	14.458
3.93634	14.4521
3.91848	14.4475
3.90079	14.4543
3.88326	14.4463
3.86589	14.4213
3.84867	14.4194
3.8316	14.4113
3.81468	14.4106
3.79791	14.385
3.78129	14.3798
3.76482	14.3791
3.74848	14.3772
3.73229	14.3564
3.71624	14.3491
3.70032	14.3349
3.68454	14.3134
3.6689	14.2959
3.65338	14.302
3.638	14.2727
3.62275	14.2666
3.60762	14.26
3.59262	14.248
3.57775	14.2236
3.56299	14.2317
3.54836	14.2109
3.53385	14.206
3.51945	14.2275
3.50517	14.2356
3.49101	14.2275
3.47696	14.205
3.46303	14.2063
3.4492	14.2065
3.43549	14.2138
3.42188	14.2197
3.40838	14.1425
3.39499	14.101
3.38171	14.0922
3.36852	14.1069
3.35544	14.061
3.34246	14.0376
3.32958	14.0283
3.3168	13.9941
3.30411	13.9961
3.29153	13.9843
3.27903	13.9746
3.26664	13.9546
3.25433	13.9604
3.24212	13.958
3.23	13.9365
3.21797	13.9384
3.20603	13.914
3.19418	13.9262
3.18241	13.9506
3.17074	13.9433
3.15914	13.9756
3.14763	13.9672
3.13621	13.9267
3.12487	13.9384
3.11361	13.9531
3.10243	13.9912
3.09133	13.9985
3.0803	13.8925
3.06936	13.874
3.0585	13.8779
3.04771	13.9355
3.037	13.9765
3.02636	14.0239
3.0158	14.0669
3.00531	14.0942
2.99489	14.1806
2.98454	14.2817
2.97427	14.4599
2.96407	14.8203
2.95393	15.3598
2.94387	15.9751
2.93387	16.2802
2.92394	15.5468
2.91408	13.9536
2.90429	12.6484
2.89456	12.0727
2.88489	12.0215
2.87529	12.207
2.86576	12.3716
2.85628	12.4609
2.84687	12.83
2.83752	13.186
2.82823	13.3833
2.81901	13.2016
2.80984	12.4726
2.80073	11.4336
2.79168	10.5078
2.78269	9.916
2.77376	9.6977
2.76488	9.7109
2.75606	9.8379
2.7473	10.0434
2.73859	10.2446
2.72994	10.3598
2.72134	10.4638
2.7128	10.5576
2.70431	10.6142
2.69587	10.6455
2.68748	10.7187
2.67915	10.7402
2.67087	10.75
2.66264	10.7588
2.65446	10.7949
2.64633	10.7812
2.63825	10.7939
2.63021	10.7851
2.62223	10.832
2.6143	10.8281
2.60641	10.791
2.59857	10.8086
2.59078	10.8125
2.58304	10.8261
2.57534	10.834
2.56768	10.8525
2.56008	10.8252
2.55251	10.8496
2.54499	10.8515
2.53752	10.8681
2.53009	10.8672
2.5227	10.8691
2.51536	10.8564
2.50806	10.8769
2.5008	10.9336
2.49358	10.915
2.4864	10.8994
2.47927	10.916
2.47218	10.9433
2.46512	10.8867
2.45811	10.9492
2.45114	10.958
2.4442	10.9492
2.43731	10.9336
2.43045	10.9619
2.42363	10.9345
2.41685	11.0009
2.41011	10.997
2.40341	10.9843
2.39674	11.0156
2.39011	11.0468
2.38352	11.0586
2.37696	11.0449
2.37044	11.083
2.36395	11.082
2.35751	11.082
2.35109	11.1133
2.34471	11.1416
2.33836	11.1416
2.33205	11.1465
2.32578	11.1523
2.31953	11.207
2.31332	11.2011
2.30714	11.1699
2.301	11.2363
2.29489	11.2363
2.28881	11.2265
2.28276	11.2304
2.27675	11.2617
2.27076	11.2558
2.26481	11.248
2.25889	11.2578
2.253	11.2851
2.24714	11.2617
2.24131	11.209
2.23551	11.2695
2.22974	11.2304
2.224	11.2773
2.21829	11.3125
2.21261	11.2656
2.20696	11.207
2.20134	11.2558
2.19574	11.2734
2.19018	11.2675
2.18464	11.2617
2.17913	11.2226
2.17365	11.2383
2.16819	11.2539
2.16277	11.2422
2.15737	11.25
2.15199	11.1914
2.14665	11.205
2.14133	11.1992
2.13603	11.1679
2.13077	11.1425
2.12552	11.1758
2.12031	11.2207
2.11512	11.1816
2.10995	11.1347
2.10481	11.1445
2.0997	11.1113
2.09461	11.08
2.08954	11.1269
2.0845	11.0586
2.07948	11.039
