Name: 14141.146
Type: Soil
Class: Lunar
Subclass: Transitional
Particle Size: Fine
Sample No.: 14141.146
Owner: JHU
Origin: Apollo 14 landing site via the NASA Lunar Sample Repository at Johnson
Description: This sample is one of a suite of soils at the Apollo 14 site
Measurement: Directional (10 degree) hemispherical reflectance
X Units: Wavelength (micrometers)
Y Units: Reflectance (percent)
wavelength	value
14.011	0.8762
13.788	0.912
13.571	1.171
13.361	1.3288
13.158	1.3723
12.96	1.4961
12.769	1.6862
12.583	2.0651
12.402	2.5117
12.227	2.6868
12.056	2.6331
11.89	2.6014
11.729	2.5935
11.572	2.6267
11.419	2.6795
11.27	2.5206
11.125	2.3726
10.983	2.3321
10.846	2.4406
10.711	2.4032
10.58	2.3243
10.452	2.2115
10.327	2.0254
10.205	1.8653
10.086	1.8616
9.97	1.8377
9.856	1.8233
9.745	1.8798
9.636	1.8325
9.53	1.8446
9.426	1.8381
9.324	1.7747
9.225	1.7651
9.127	1.7636
9.032	1.706
8.938	1.5351
8.847	1.3622
8.757	1.273
8.669	1.2193
8.583	1.1468
8.499	1.1221
8.416	1.0451
8.335	0.9831
8.255	0.9376
8.177	0.9961
8.1	1.127
8.025	1.3538
7.951	1.6795
7.879	2.0693
7.808	2.4773
7.737	2.9158
7.669	3.3985
7.601	3.8446
7.535	4.315
7.47	4.7947
7.406	5.2476
7.343	5.7173
7.281	6.1526
7.22	6.5948
7.16	6.9921
7.102	7.364
7.044	7.7509
6.987	8.0523
6.931	8.3889
6.875	8.6622
6.821	8.8847
6.768	9.0912
6.715	9.2726
6.663	9.3283
6.612	9.4416
6.562	9.5749
6.513	9.778
6.464	9.892
6.416	10.089
6.369	9.9852
6.322	9.8874
6.276	9.937
6.231	9.9631
6.186	10.107
6.142	10.249
6.099	10.449
6.056	10.689
6.014	10.842
5.973	11.184
5.931	11.654
5.891	12.153
5.851	12.485
5.812	12.828
5.773	13.184
5.735	13.419
5.697	13.568
5.66	13.705
5.623	13.909
5.586	14.189
5.551	14.431
5.515	14.553
5.48	14.639
5.446	14.686
5.411	14.824
5.378	14.981
5.345	15.119
5.312	15.215
5.279	15.37
5.247	15.574
5.215	15.842
5.184	16.1
5.153	16.479
5.123	16.893
5.093	17.316
5.063	17.698
5.033	18.067
5.004	18.469
4.975	18.886
4.947	19.349
4.919	19.817
4.891	20.241
4.863	20.62
4.836	21.048
4.809	21.463
4.782	21.837
4.756	22.211
4.73	22.58
4.704	22.978
4.679	23.379
4.654	23.792
4.629	24.229
4.604	24.639
4.58	24.975
4.556	25.275
4.532	25.555
4.508	25.762
4.485	25.938
4.461	26.093
4.439	26.237
4.416	26.341
4.393	26.47
4.371	26.609
4.349	26.797
4.327	26.933
4.306	27.111
4.284	27.304
4.263	27.379
4.242	27.555
4.222	27.627
4.201	27.641
4.181	27.684
4.161	27.744
4.141	27.806
4.121	27.852
4.101	27.912
4.082	27.965
4.063	28.009
4.044	28.082
4.025	28.116
4.006	28.167
3.988	28.224
3.97	28.26
3.951	28.319
3.933	28.317
3.916	28.325
3.898	28.353
3.88	28.398
3.863	28.416
3.846	28.428
3.829	28.459
3.812	28.484
3.795	28.469
3.779	28.471
3.762	28.504
3.746	28.487
3.73	28.507
3.714	28.496
3.698	28.488
3.682	28.475
3.666	28.473
3.651	28.484
3.636	28.509
3.62	28.477
3.605	28.473
3.59	28.477
3.575	28.477
3.561	28.464
3.546	28.449
3.531	28.447
3.517	28.467
3.503	28.495
3.489	28.438
3.475	28.439
3.461	28.405
3.447	28.415
3.433	28.451
3.42	28.44
3.406	28.408
3.393	28.358
3.38	28.314
3.366	28.266
3.353	28.181
3.34	28.172
3.327	28.119
3.315	28.111
3.302	28.082
3.289	28.055
3.277	27.999
3.265	27.964
3.252	27.918
3.24	27.879
3.228	27.825
3.216	27.773
3.204	27.727
3.192	27.65
3.18	27.643
3.169	27.605
3.157	27.573
3.146	27.533
3.134	27.484
3.123	27.459
3.112	27.399
3.101	27.377
3.09	27.304
3.079	27.276
3.067	27.237
3.057	27.208
3.046	27.202
3.035	27.175
3.025	27.137
3.014	27.059
3.004	27.025
2.993	26.941
2.983	26.908
2.973	26.87
2.962	26.849
2.952	26.806
2.942	26.751
2.932	26.688
2.922	26.701
2.912	26.672
2.903	26.664
2.893	26.636
2.883	26.647
2.874	26.633
2.864	26.619
2.855	26.643
2.845	26.638
2.836	26.645
2.827	26.66
2.817	26.758
2.808	26.789
2.799	26.893
2.79	26.974
2.781	27.105
2.772	27.316
2.763	27.57
2.755	27.809
2.746	27.927
2.737	28.179
2.728	28.361
2.72	28.691
2.711	28.829
2.703	28.867
2.695	28.958
2.686	28.943
2.678	28.98
2.67	29.195
2.661	29.062
2.653	29.065
2.645	29.04
2.637	28.988
2.629	29.054
2.621	29.042
2.613	28.917
2.605	28.965
2.597	28.865
2.59	28.813
2.582	28.73
2.574	28.692
2.566	28.631
2.559	28.505
2.551	28.525
2.544	28.43
2.536	28.396
2.529	28.294
2.522	28.263
2.514	28.21
2.507	28.116
2.5	28.069
2.492	27.987
2.485	27.923
2.478	27.872
2.471	27.802
2.464	27.789
2.457	27.69
2.45	27.656
2.443	27.63
2.436	27.518
2.429	27.467
2.422	27.438
2.416	27.384
2.409	27.279
2.402	27.23
2.396	27.194
2.389	27.078
2.382	27.034
2.376	26.986
2.369	26.894
2.363	26.82
2.356	26.793
2.35	26.716
2.344	26.659
2.337	26.551
2.331	26.493
2.325	26.442
2.318	26.396
2.312	26.372
2.306	26.294
2.3	26.179
2.294	26.151
2.288	26.121
2.282	26.03
2.276	25.94
2.27	25.91
2.264	25.844
2.258	25.792
2.252	25.72
2.246	25.644
2.24	25.564
2.235	25.541
2.229	25.42
2.223	25.456
2.217	25.351
2.212	25.292
2.206	25.271
2.2	25.167
2.195	25.097
2.189	25.045
2.184	25.025
2.178	24.935
2.173	24.887
2.167	24.853
2.162	24.781
2.156	24.715
2.151	24.644
2.146	24.654
2.14	24.607
2.135	24.499
2.13	24.514
2.125	24.382
2.119	24.411
2.114	24.298
2.109	24.3
2.104	24.249
2.099	24.207
2.094	24.166
2.089	24.079
2.084	24.03
