Name: 61221.79
Type: Soil
Class: Lunar
Subclass: Highlands
Particle Size: Fine
Sample No.: 61221.79
Owner: JHU
Origin: Apollo 16 landing site via the NASA Lunar Sample Repository at Johnson
Description: This sample is one of a suite of relatively more aluminous and
Measurement: Directional (10 degree) hemispherical reflectance
X Units: Wavelength (micrometers)
Y Units: Reflectance (percent)
wavelength	value
14.011	1.0756
13.788	1.0614
13.571	1.0512
13.361	1.3295
13.158	1.2441
12.96	1.4065
12.769	1.8491
12.583	2.5824
12.402	3.1917
12.227	3.4077
12.056	3.3022
11.89	3.1482
11.729	3.1156
11.572	2.9981
11.419	2.8824
11.27	2.6637
11.125	2.582
10.983	2.5592
10.846	2.6128
10.711	2.5741
10.58	2.4752
10.452	2.3033
10.327	2.0424
10.205	1.832
10.086	1.6988
9.97	1.6027
9.856	1.5611
9.745	1.6152
9.636	1.5182
9.53	1.3882
9.426	1.2506
9.324	1.2225
9.225	1.246
9.127	1.3608
9.032	1.4217
8.938	1.3194
8.847	1.2937
8.757	1.3385
8.669	1.3693
8.583	1.3079
8.499	1.1998
8.416	1.0227
8.335	0.7844
8.255	0.5944
8.177	0.5782
8.1	0.6442
8.025	0.8575
7.951	1.1948
7.879	1.5873
7.808	2.031
7.737	2.5489
7.669	3.1373
7.601	3.6985
7.535	4.2329
7.47	4.7866
7.406	5.3731
7.343	5.9297
7.281	6.4645
7.22	6.974
7.16	7.4306
7.102	7.8573
7.044	8.1975
6.987	8.6124
6.931	8.9469
6.875	9.1719
6.821	9.4248
6.768	9.6953
6.715	9.8785
6.663	9.9948
6.612	10.174
6.562	10.398
6.513	10.683
6.464	10.91
6.416	10.988
6.369	11.109
6.322	11.149
6.276	11.285
6.231	11.402
6.186	11.415
6.142	11.612
6.099	11.778
6.056	11.808
6.014	12.137
5.973	12.703
5.931	13.335
5.891	14.059
5.851	14.827
5.812	15.524
5.773	16.133
5.735	16.7
5.697	17.049
5.66	17.316
5.623	17.738
5.586	18.071
5.551	18.277
5.515	18.247
5.48	18.199
5.446	18.308
5.411	18.647
5.378	19.187
5.345	19.655
5.312	20.048
5.279	20.531
5.247	21.067
5.215	21.552
5.184	22.132
5.153	22.741
5.123	23.439
5.093	24.049
5.063	24.585
5.033	25.203
5.004	25.918
4.975	26.557
4.947	27.19
4.919	27.885
4.891	28.531
4.863	29.165
4.836	29.781
4.809	30.35
4.782	30.857
4.756	31.358
4.73	31.981
4.704	32.6
4.679	33.204
4.654	33.749
4.629	34.466
4.604	35.243
4.58	35.929
4.556	36.501
4.532	37.019
4.508	37.458
4.485	37.845
4.461	38.083
4.439	38.292
4.416	38.436
4.393	38.605
4.371	38.907
4.349	39.266
4.327	39.611
4.306	40.027
4.284	40.47
4.263	40.815
4.242	41.122
4.222	41.313
4.201	41.393
4.181	41.537
4.161	41.63
4.141	41.76
4.121	41.817
4.101	41.9
4.082	41.978
4.063	42.049
4.044	42.107
4.025	42.189
4.006	42.208
3.988	42.279
3.97	42.313
3.951	42.387
3.933	42.41
3.916	42.428
3.898	42.457
3.88	42.475
3.863	42.491
3.846	42.462
3.829	42.493
3.812	42.509
3.795	42.473
3.779	42.47
3.762	42.437
3.746	42.387
3.73	42.371
3.714	42.31
3.698	42.267
3.682	42.203
3.666	42.161
3.651	42.114
3.636	42.066
3.62	42.038
3.605	41.964
3.59	41.909
3.575	41.836
3.561	41.802
3.546	41.722
3.531	41.653
3.517	41.63
3.503	41.591
3.489	41.463
3.475	41.385
3.461	41.271
3.447	41.264
3.433	41.201
3.42	41.085
3.406	40.977
3.393	40.872
3.38	40.718
3.366	40.595
3.353	40.408
3.34	40.297
3.327	40.2
3.315	40.057
3.302	39.965
3.289	39.848
3.277	39.733
3.265	39.563
3.252	39.451
3.24	39.32
3.228	39.173
3.216	39.042
3.204	38.883
3.192	38.703
3.18	38.647
3.169	38.488
3.157	38.343
3.146	38.243
3.134	38.122
3.123	38.05
3.112	37.885
3.101	37.815
3.09	37.712
3.079	37.64
3.067	37.546
3.057	37.502
3.046	37.403
3.035	37.38
3.025	37.253
3.014	37.156
3.004	37.057
2.993	36.95
2.983	36.893
2.973	36.855
2.962	36.792
2.952	36.732
2.942	36.721
2.932	36.726
2.922	36.679
2.912	36.696
2.903	36.706
2.893	36.715
2.883	36.79
2.874	36.828
2.864	36.918
2.855	36.976
2.845	37.086
2.836	37.173
2.827	37.232
2.817	37.442
2.808	37.619
2.799	37.851
2.79	38.112
2.781	38.385
2.772	38.713
2.763	39.143
2.755	39.437
2.746	40.077
2.737	40.393
2.728	40.82
2.72	40.786
2.711	40.99
2.703	41.28
2.695	41.177
2.686	41.396
2.678	41.354
2.67	41.365
2.661	41.813
2.653	41.756
2.645	41.821
2.637	41.855
2.629	41.672
2.621	41.581
2.613	41.715
2.605	41.38
2.597	41.611
2.59	41.563
2.582	41.479
2.574	41.394
2.566	41.484
2.559	41.399
2.551	41.345
2.544	41.282
2.536	41.252
2.529	41.231
2.522	41.139
2.514	41.126
2.507	41.095
2.5	41.021
2.492	40.961
2.485	40.922
2.478	40.842
2.471	40.82
2.464	40.767
2.457	40.727
2.45	40.673
2.443	40.641
2.436	40.553
2.429	40.51
2.422	40.476
2.416	40.417
2.409	40.366
2.402	40.286
2.396	40.293
2.389	40.216
2.382	40.19
2.376	40.124
2.369	40.111
2.363	40.013
2.356	40.012
2.35	39.972
2.344	39.887
2.337	39.796
2.331	39.811
2.325	39.673
2.318	39.71
2.312	39.671
2.306	39.588
2.3	39.539
2.294	39.523
2.288	39.447
2.282	39.355
2.276	39.326
2.27	39.309
2.264	39.275
2.258	39.206
2.252	39.134
2.246	39.119
2.24	39.061
2.235	39.075
2.229	38.952
2.223	38.953
2.217	38.842
2.212	38.872
2.206	38.8
2.2	38.766
2.195	38.719
2.189	38.677
2.184	38.616
2.178	38.592
2.173	38.538
2.167	38.506
2.162	38.519
2.156	38.4
2.151	38.365
2.146	38.339
2.14	38.274
2.135	38.243
2.13	38.285
2.125	38.163
2.119	38.183
2.114	38.077
2.109	38.082
2.104	38.017
2.099	37.989
2.094	37.945
2.089	37.921
2.084	37.894
