Name: Topaz Al2SiO4(F,OH)2
Type: Mineral
Class: Silicates
Subclass: Nesosilicates (Isolated tetrahedra)
Particle Size: Fine  (0 - 74 Micrometers)
Sample No.: topaz.2
Owner: JHU
Wavelength Range: IR
Origin: Ouro Preto, Brazil via Don Hoover, USGS
Description: The sample consisted of several orange-colored, rounded
Measurement: Bidirectional reflectance
X Units: Wavelength (micrometers)
Y Units: Reflectance (percent)
wavelength	value
25.0442	1.9033
24.3388	1.5596
23.6719	1.8149
23.0407	2.3401
22.4422	2.7883
21.8741	3.1675
21.334	2.2063
20.8199	2.1384
20.33	1.895
19.8627	1.9153
19.4163	1.8267
18.9896	1.7978
18.5812	2.0654
18.19	2.1038
17.815	1.2915
17.4551	0.9536
17.1094	1.1643
16.7772	1.4329
16.4576	1.8313
16.15	2.2527
15.8537	2.3603
15.568	2.3152
15.2925	2.1997
15.0265	1.9006
14.7697	1.2854
14.5214	0.7439
14.2814	0.6575
14.0492	0.5459
13.8244	1.1726
13.6067	1.5518
13.3957	1.416
13.1912	1.353
12.9929	1.2368
12.8004	1.7214
12.6135	1.9482
12.432	1.814
12.2557	1.6638
12.0843	1.616
11.9176	1.8074
11.7555	2.0959
11.5977	2.3472
11.444	2.6362
11.2944	2.6663
11.1487	2.7412
11.0067	2.7385
10.8682	2.7751
10.7332	3.0491
10.6015	3.219
10.473	3.2143
10.3476	3.0747
10.2251	2.5561
10.1056	2.5644
9.98873	2.8904
9.87458	3.0239
9.763	3.0432
9.65392	3.2302
9.54724	3.1387
9.44291	2.5247
9.34082	1.6523
9.24091	0.8013
9.14312	0.2722
9.04739	0.1748
8.95363	0.3501
8.8618	0.5615
8.77183	0.6389
8.68368	0.5913
8.59727	0.8022
8.51257	1.1147
8.42951	1.0173
8.34807	0.4519
8.26819	0.4846
8.18981	0.7649
8.11292	1.2178
8.03745	1.7234
7.96337	2.2581
7.89064	2.8113
7.81924	3.3218
7.74911	3.717
7.68023	4.0574
7.61256	4.4072
7.54608	4.7021
7.48074	4.9643
7.41653	5.2278
7.35341	5.4822
7.29136	5.7258
7.23034	5.9599
7.17033	6.166
7.11132	6.3384
7.05327	6.5183
6.99616	6.7339
6.93996	6.9184
6.88467	7.029
6.83024	7.0801
6.77667	7.2214
6.72393	7.3962
6.67201	7.5827
6.62089	7.7627
6.57054	7.8901
6.52095	8.0393
6.4721	8.2285
6.42398	8.4275
6.37657	8.5859
6.32986	8.6782
6.28382	8.768
6.23845	8.8501
6.19373	8.9299
6.14965	9.0127
6.10619	9.1284
6.06334	9.259
6.02109	9.1802
5.97942	8.8674
5.93832	8.5942
5.89778	8.5871
5.8578	8.5976
5.81835	8.5027
5.77943	8.3916
5.74103	8.0747
5.70314	7.6347
5.66574	7.0107
5.62883	6.4302
5.5924	6.0556
5.55644	5.8872
5.52093	5.8608
5.48588	5.9426
5.45127	6.04
5.41709	6.1623
5.38334	6.4204
5.35	6.7771
5.31708	7.1994
5.28456	7.7793
5.25243	8.4829
5.2207	9.1328
5.18934	9.6489
5.15836	10.0681
5.12775	10.4426
5.09749	10.7361
5.0676	10.9443
5.03805	11.0322
5.00884	11.0312
4.97998	11.2158
4.95144	11.5886
4.92322	11.9504
4.89533	12.2617
4.86775	12.5168
4.84048	12.7019
4.81351	12.8208
4.78684	12.8789
4.76047	12.8906
4.73439	12.8982
4.70859	12.8886
4.68306	12.8486
4.65782	12.7839
4.63284	12.7798
4.60814	12.8379
4.58369	12.8962
4.5595	13.0149
4.53557	13.153
4.51188	13.2265
4.48845	13.2519
4.46525	13.2334
4.44229	13.1584
4.41957	12.9882
4.39708	12.6045
4.37481	11.623
4.35277	10.0119
4.33096	8.7261
4.30935	8.5847
4.28797	9.7263
4.26679	11.124
4.24583	12.2473
4.22506	12.7802
4.2045	13.0322
4.18414	13.1167
4.16398	13.1665
4.14401	13.2402
4.12423	13.3186
4.10464	13.3654
4.08523	13.3645
4.066	13.2644
4.04696	13.1435
4.02809	13.1001
4.0094	13.2024
3.99088	13.3181
3.97253	13.3488
3.95435	13.3674
3.93634	13.3867
3.91848	13.3838
3.90079	13.3591
3.88326	13.3293
3.86589	13.3088
3.84867	13.3071
3.8316	13.2844
3.81468	13.2949
3.79791	13.2954
3.78129	13.3357
3.76482	13.3471
3.74848	13.3442
3.73229	13.2356
3.71624	13.1577
3.70032	13.334
3.68454	13.333
3.6689	13.322
3.65338	13.3198
3.638	13.313
3.62275	13.312
3.60762	13.2973
3.59262	13.2878
3.57775	13.2629
3.56299	13.2453
3.54836	13.2185
3.53385	13.1787
3.51945	13.0324
3.50517	12.5984
3.49101	12.8142
3.47696	12.886
3.46303	12.8694
3.4492	12.7414
3.43549	12.5442
3.42188	12.1123
3.40838	12.2375
3.39499	12.5356
3.38171	12.5486
3.36852	12.6242
3.35544	12.7417
3.34246	12.7595
3.32958	12.7446
3.3168	12.7097
3.30411	12.6591
3.29153	12.6235
3.27903	12.5683
3.26664	12.5061
3.25433	12.417
3.24212	12.3713
3.23	12.3191
3.21797	12.2727
3.20603	12.208
3.19418	12.1372
3.18241	12.0451
3.17074	11.9751
3.15914	11.9299
3.14763	11.885
3.13621	11.8112
3.12487	11.7236
3.11361	11.5556
3.10243	11.3818
3.09133	11.1867
3.0803	11.0046
3.06936	10.7922
3.0585	10.5268
3.04771	10.2268
3.037	9.9502
3.02636	9.6098
3.0158	9.2934
3.00531	9.0774
2.99489	8.9165
2.98454	8.7837
2.97427	8.7483
2.96407	8.8086
2.95393	8.9536
2.94387	9.0647
2.93387	9.0532
2.92394	8.8808
2.91408	8.5434
2.90429	8.2934
2.89456	8.3093
2.88489	8.2856
2.87529	8.0976
2.86576	7.9909
2.85628	8.0686
2.84687	7.9922
2.83752	7.7363
2.82823	7.2717
2.81901	6.7627
2.80984	6.3684
2.80073	6.0796
2.79168	5.7939
2.78269	5.2114
2.77376	4.1113
2.76488	2.5449
2.75606	1.02
2.7473	0.6562
2.73859	0.7319
2.72994	3.5762
2.72134	6.4668
2.7128	8.0534
2.70431	8.9614
2.69587	9.5678
2.68748	10.0193
2.67915	10.2929
2.67087	10.4477
2.66264	10.5395
2.65446	10.5371
2.64633	10.5017
2.63825	10.3452
2.63021	9.9438
2.62223	9.6167
2.6143	9.5957
2.60641	9.5185
2.59857	9.6289
2.59078	9.8711
2.58304	9.8296
2.57534	9.4233
2.56768	8.8159
2.56008	8.2519
2.55251	7.8515
2.54499	7.8247
2.53752	7.8313
2.53009	7.8738
2.5227	8.061
2.51536	8.4614
2.50806	8.8623
2.5008	9.1982
2.49358	9.6511
2.4864	9.9961
2.47927	10.2385
2.47218	10.3972
2.46512	10.7004
2.45811	11.1452
2.45114	11.4721
2.4442	11.6501
2.43731	11.623
2.43045	11.5888
2.42363	11.5883
2.41685	11.7424
2.41011	11.9536
2.40341	12.101
2.39674	12.2036
2.39011	12.257
2.38352	12.3059
2.37696	12.4026
2.37044	12.4824
2.36395	12.5791
2.35751	12.5647
2.35109	12.6064
2.34471	12.6174
2.33836	12.6172
2.33205	12.6797
2.32578	12.8086
2.31953	13.0097
2.31332	13.1555
2.30714	13.2773
2.301	13.466
2.29489	13.6225
2.28881	13.7151
2.28276	13.6799
2.27675	13.5461
2.27076	13.2841
2.26481	13.2934
2.25889	13.6084
2.253	13.8549
2.24714	13.9133
2.24131	13.8693
2.23551	13.8567
2.22974	13.6279
2.224	13.478
2.21829	13.3769
2.21261	13.375
2.20696	13.3798
2.20134	13.4475
2.19574	13.4892
2.19018	13.4172
2.18464	13.33
2.17913	13.2138
2.17365	13.1816
2.16819	13.0918
2.16277	12.8635
2.15737	12.749
2.15199	12.8007
2.14665	12.9179
2.14133	13.2221
2.13603	13.4692
2.13077	13.6626
2.12552	13.6635
2.12031	13.5683
2.11512	13.333
2.10995	12.9702
2.10481	12.5634
2.0997	11.7021
2.09461	9.5962
2.08954	7.3164
2.0845	6.8286
2.07948	8.8564
