Name: Limestone-Siltstone
Type: Rocks
Class: Sedimentary
Subclass: Siltstone
Particle Size: 0 - 75 Micrometers
Sample No.: siltstone.2
Owner: JHU
Wavelength Range: All
Origin: Sample No. 352,  The Hunt and Salisbury Collection at the U.S.
Description: This sample contains a microcrystalline groundmass or
Measurement: Directional (10 Degree) Hemispherical Reflectance
X Units: Wavelength (micrometers)
Y Units: Reflectance (percent)
wavelength	value
14.983	1.8327
14.645	2.4148
14.321	1.6726
14.011	3.5084
13.715	3.7111
13.43	3.4196
13.158	4.2823
12.896	3.5094
12.644	2.8503
12.402	2.1728
12.169	2.9228
11.945	3.8613
11.729	4.7868
11.52	4.4986
11.319	4.0036
11.125	3.4675
10.937	2.9917
10.755	3.57
10.58	4.2788
10.41	3.7822
10.245	2.987
10.086	2.7864
9.931	2.8626
9.781	3.0355
9.636	3.4246
9.495	3.2321
9.358	3.8873
9.225	4.6935
9.095	5.1666
8.969	5.0039
8.847	4.5992
8.727	4.2568
8.612	3.4225
8.499	3.8824
8.389	3.4793
8.281	4.1317
8.177	6.3081
8.075	5.9706
7.976	5.6791
7.879	5.111
7.784	5.1425
7.692	5.843
7.601	6.4549
7.513	7.1904
7.427	7.6146
7.343	8.0198
7.261	8.3653
7.18	8.7574
7.102	9.3391
7.025	10.652
6.949	10.73
6.875	10.736
6.803	10.921
6.733	11.203
6.663	12.366
6.596	13.707
6.529	15.633
6.464	19.779
6.4	21.59
6.338	20.215
6.276	17.01
6.216	15.028
6.157	17.021
6.099	19.233
6.042	19.291
5.986	18.587
5.931	17.672
5.878	19.632
5.825	21.87
5.773	23.211
5.722	23.812
5.672	23.102
5.623	20.622
5.574	19.632
5.527	20.016
5.48	22.36
5.434	25.401
5.389	22.132
5.345	19.245
5.301	20.899
5.258	25.302
5.215	31.908
5.174	34.446
5.133	35.172
5.093	34.942
5.053	33.516
5.014	33.348
4.975	35.725
4.937	39.647
4.9	44.52
4.863	49.403
4.827	51.326
4.791	52.649
4.756	54.25
4.721	55.669
4.687	55.778
4.654	56.973
4.62	58.957
4.588	61.102
4.556	62.592
4.524	62.772
4.492	62.112
4.461	62.453
4.431	64.324
4.401	66.595
4.371	68.864
4.342	70.001
4.313	70.124
4.284	70.054
4.256	70.679
4.229	70.902
4.201	71.198
4.174	71.481
4.147	71.594
4.121	71.884
4.095	71.896
4.069	71.46
4.044	70.152
4.019	67.166
3.994	61.308
3.97	54.79
3.945	54.902
3.921	56.687
3.898	60.36
3.875	61.685
3.852	65.647
3.829	65.238
3.806	62.421
3.784	65.489
3.762	68.769
3.74	70.943
3.719	71.208
3.698	71.308
3.677	71.425
3.656	71.513
3.636	71.575
3.615	71.349
3.595	70.908
3.575	70.228
3.556	69.156
3.536	68.37
3.517	66.211
3.498	62.194
3.479	59.404
3.461	57.593
3.442	57.937
3.424	59.444
3.406	59.484
3.388	59.903
3.371	59.611
3.353	58.158
3.336	57.318
3.319	56.413
3.302	57.212
3.285	60.056
3.269	60.042
3.252	59.656
3.236	59.162
3.22	58.539
3.204	57.862
3.188	57.157
3.173	56.45
3.157	55.722
3.142	54.933
3.127	54.142
3.112	53.341
3.097	52.527
3.082	51.718
3.067	50.972
3.053	50.265
3.039	49.648
3.025	49.109
3.011	48.605
2.997	48.122
2.983	47.604
2.969	47.049
2.956	46.414
2.942	45.782
2.929	45.346
2.916	45.24
2.903	45.589
2.89	46.073
2.877	46.382
2.864	46.261
2.852	45.4
2.839	42.879
2.827	36.095
2.814	25.891
2.802	16.106
2.79	10.136
2.778	7.2598
2.766	6.0918
2.755	6.7668
2.743	9.8792
2.731	18.63
2.72	36.496
2.708	53.867
2.697	61.126
2.686	65.739
2.675	68.873
2.664	71.423
2.653	73.184
2.642	73.71
2.632	73.268
2.621	73.094
2.61	73.015
2.6	73.133
2.59	73.622
2.579	74.391
2.569	75.084
2.559	75.567
2.549	75.673
2.539	75.366
2.529	74.872
2.519	74.396
2.509	74.038
2.5	73.622
2.49	73.196
2.481	72.527
2.471	71.714
2.462	71.004
2.452	70.622
2.443	70.7
2.434	71.357
2.425	72.095
2.416	72.625
2.407	72.899
2.398	72.766
2.389	72.048
2.38	71.379
2.372	71.007
2.363	70.424
2.354	69.959
2.346	70.451
2.337	72.034
2.329	74.108
2.321	76.301
2.312	78.219
2.304	79.611
2.296	80.217
2.288	80.309
2.28	80.211
2.272	79.697
2.264	77.719
2.256	74.614
2.248	72.768
2.24	72.27
2.233	71.039
2.225	68.376
2.217	67.577
2.21	69.974
2.202	73.959
2.195	78.107
2.187	81.289
2.18	83.16
2.173	84.295
2.166	85.024
2.158	85.449
2.151	85.74
2.144	85.861
2.137	85.783
2.13	85.714
2.123	85.865
2.116	86.242
2.109	86.679
2.102	87.251
2.095	87.799
2.089	88.303
2.082	88.622
2.06	89.294
2.028	89.208
1.996	87.386
1.964	86.442
1.932	85.128
1.9	86.948
1.868	85.181
1.836	86.8
1.804	87.041
1.772	85.83
1.74	85.771
1.708	85.682
1.676	85.183
1.644	84.535
1.612	83.975
1.58	83.982
1.548	83.855
1.516	83.027
1.484	81.926
1.452	80.755
1.42	74.099
1.388	76.627
1.356	79.996
1.324	77.649
1.292	76.973
1.26	76.139
1.228	76.139
1.196	74.91
1.164	73.211
1.132	73.48
1.1	72.705
1.068	73.311
1.036	72.293
1.004	71.949
0.972	71.657
0.94	71.355
0.908	71.098
0.876	70.975
0.844	71.488
0.812	72.213
0.795	71.877
0.787	71.909
0.779	72.035
0.771	71.297
0.763	70.81
0.755	70.714
0.747	70.738
0.739	70.03
0.731	70.25
0.723	69.167
0.715	69.279
0.707	68.96
0.699	68.734
0.691	68.711
0.683	68.302
0.675	67.801
0.667	67.64
0.659	67.211
0.651	67.35
0.643	66.506
0.635	66.506
0.627	65.885
0.619	65.79
0.611	64.773
0.603	64.528
0.595	64.445
0.587	64.26
0.579	64.177
0.571	63.536
0.563	62.826
0.555	61.286
0.547	61.612
0.539	61.119
0.531	60.749
0.523	60.54
0.515	59.695
0.507	59.106
0.499	58.97
0.491	58.462
0.483	57.477
0.475	56.497
0.467	55.266
0.459	54.251
0.451	52.381
0.443	49.9
0.435	48.962
0.427	47.596
0.419	45.374
0.411	43.576
0.403	41.108
