Name: Heulandite (Na,Ca)2-3Al3(Al,Si)2Si13O36.12H2O
Type: Mineral
Class: Silicates
Subclass: Tectosilicates (Zeolite Group)
Particle Size: Fine  (less than 2 Micrometers)
Sample No.: heulan.1
Owner: JHU
Wavelength Range: IR
Origin: Teigarhora, Iceland via W. J. Ehmann #37.
Description: No solid sample was available.  Petrographically the
Measurement: Transmission
X Units: Wavelength (micrometers)
Y Units: Transmittance (percent)
wavelength	value
25.044	45.9764
24.339	41.0643
23.672	36.662
23.041	31.9657
22.442	27.996
21.874	26.704
21.334	28.455
20.82	34.1415
20.33	41.7811
19.863	47.6718
19.416	50.3944
18.99	51.4632
18.581	53.4183
18.19	53.7699
17.815	53.2035
17.455	52.2704
17.109	51.4003
16.777	50.1976
16.458	51.3006
16.15	53.723
15.854	55.6786
15.568	56.3739
15.292	56.057
15.027	55.307
14.77	55.0707
14.521	54.8275
14.281	53.7992
14.049	52.9144
13.824	52.6095
13.607	53.3866
13.396	54.9181
13.191	57.1405
12.993	58.7765
12.8	60.3944
12.614	62.7625
12.432	66.4925
12.256	70.6143
12.084	72.3113
11.918	70.1966
11.755	64.8006
11.598	59.4471
11.444	55.4015
11.294	53.1024
11.149	52.1717
11.007	52.0458
10.868	51.6769
10.733	49.8202
10.602	45.4174
10.473	37.8754
10.348	28.8459
10.225	20.2978
10.106	13.7307
9.989	9.4262
9.875	6.8296
9.763	5.3567
9.654	4.55
9.547	4.2602
9.443	4.5723
9.341	5.3579
9.241	6.8154
9.143	8.5776
9.047	10.1269
8.954	11.5324
8.862	12.9365
8.772	14.3547
8.684	16.0041
8.597	18.1057
8.513	21.0556
8.43	24.9208
8.348	30.1576
8.268	38.6088
8.19	50.6849
8.113	61.0741
8.037	67.6766
7.963	71.7642
7.891	74.8067
7.819	77.0062
7.749	78.7283
7.68	80.1631
7.613	81.212
7.546	82.2466
7.481	83.0498
7.417	83.7513
7.353	84.0054
7.291	84.4568
7.23	84.7659
7.17	83.9993
7.111	84.0066
7.053	85.2571
6.996	85.6756
6.94	85.9251
6.885	85.6897
6.83	85.3064
6.777	85.4759
6.724	86.2459
6.672	86.9993
6.621	87.4744
6.571	87.6399
6.521	87.3992
6.472	87.0154
6.424	86.4983
6.377	85.6272
6.33	83.8142
6.284	81.8172
6.238	79.492
6.194	74.575
6.15	68.4818
6.106	67.4324
6.063	69.2767
6.021	71.6644
5.979	75.2723
5.938	79.8118
5.898	83.6492
5.858	86.0149
5.818	87.3196
5.779	88.1453
5.741	88.6057
5.703	88.9417
5.666	89.2503
5.629	89.448
5.592	89.5518
5.556	89.7317
5.521	89.8469
5.486	89.9666
5.451	90.1255
5.417	90.2625
5.383	90.4192
5.35	90.4661
5.317	90.6218
5.285	90.6795
5.252	90.7825
5.221	90.8049
5.189	90.9143
5.158	90.991
5.128	91.1199
5.097	91.1306
5.068	91.1663
5.038	91.1834
5.009	91.3015
4.98	91.2024
4.951	91.2598
4.923	91.2495
4.895	91.28
4.868	91.2151
4.84	91.2288
4.814	91.262
4.787	91.1985
4.76	91.1494
4.734	91.1038
4.709	91.0559
4.683	90.992
4.658	90.9597
4.633	90.8953
4.608	90.9763
4.584	90.9226
4.56	90.9043
4.536	90.8838
4.512	90.8386
4.488	90.8855
4.465	90.8416
4.442	90.8108
4.42	90.8963
4.397	90.8694
4.375	90.9522
4.353	90.9492
4.331	91.0176
4.309	91.0227
4.288	91.0088
4.267	91.0471
4.246	91.156
4.225	91.1846
4.205	91.1856
4.184	91.2678
4.164	91.2908
4.144	91.3438
4.124	91.4219
4.105	91.4739
4.085	91.4739
4.066	91.5156
4.047	91.5281
4.028	91.5957
4.009	91.6306
3.991	91.647
3.973	91.6045
3.954	91.636
3.936	91.6047
3.918	91.6594
3.901	91.552
3.883	91.4754
3.866	91.3801
3.849	91.3184
3.832	91.1643
3.815	91.0994
3.798	90.9971
3.781	90.8308
3.765	90.6755
3.748	90.459
3.732	90.2957
3.716	90.093
3.7	89.8289
3.685	89.634
3.669	89.3977
3.653	89.1135
3.638	88.8943
3.623	88.5589
3.608	88.2686
3.593	87.991
3.578	87.655
3.563	87.3057
3.548	86.9383
3.534	86.4236
3.519	85.9141
3.505	85.2649
3.491	84.9151
3.477	84.4729
3.463	84.0371
3.449	83.3836
3.435	82.6778
3.422	81.7715
3.408	81.1524
3.395	80.7517
3.382	80.0955
3.369	79.4229
3.355	78.7344
3.342	77.9053
3.33	77.0428
3.317	76.1541
3.304	75.2938
3.292	74.366
3.279	73.3575
3.267	72.3094
3.254	71.2195
3.242	70.0447
3.23	68.7266
3.218	67.4271
3.206	66.171
3.194	64.9207
3.182	63.6729
3.171	62.3858
3.159	61.1385
3.148	59.7035
3.136	58.4203
3.125	57.1683
3.114	55.8963
3.102	54.7733
3.091	53.8856
3.08	53.0614
3.069	52.2738
3.058	51.5985
3.048	50.8817
3.037	50.1278
3.026	49.2738
3.016	48.2899
3.005	47.2557
2.995	46.1913
2.985	45.2772
2.974	44.4139
2.964	43.7738
2.954	43.411
2.944	43.16
2.934	43.0487
2.924	42.9535
2.914	43.1239
2.904	43.3505
2.895	43.5336
2.885	43.869
2.875	44.3378
2.866	44.9315
2.856	45.6122
2.847	46.6762
2.838	47.705
2.828	48.5175
2.819	49.3456
2.81	50.3592
2.801	51.4569
2.792	52.4432
2.783	53.6254
2.774	55.223
2.765	57.2752
2.756	60.2171
2.747	64.0687
2.739	68.5511
2.73	72.6268
2.721	75.8475
2.713	77.8641
2.704	79.617
2.696	80.9422
2.687	81.7674
2.679	82.3963
2.671	82.7776
2.663	83.0628
2.654	83.3953
2.646	83.5179
2.638	83.6092
2.63	83.7303
2.622	83.7127
2.614	83.9099
2.606	84.0061
2.599	84.1858
2.591	84.2205
2.583	84.4373
2.575	84.2166
2.568	84.2757
2.56	84.3318
2.553	84.4431
2.545	84.3904
2.538	84.2932
2.53	84.1785
2.523	84.2752
2.515	84.3631
2.508	84.5437
2.501	84.3494
2.494	84.3123
2.486	84.3777
2.479	84.241
2.472	84.2195
2.465	84.3582
2.458	84.4793
2.451	84.5906
2.444	84.5642
2.437	84.3826
2.43	84.3103
2.424	84.4978
2.417	84.5486
2.41	84.4929
2.403	84.5652
2.397	84.5437
2.39	84.3494
2.384	84.3924
2.377	84.5916
2.37	84.5681
2.364	84.365
2.358	84.2185
2.351	84.4392
2.345	84.4812
2.338	84.2693
2.332	84.2
2.326	83.9549
2.32	84.2771
2.313	84.3601
2.307	84.1453
2.301	84.0086
2.295	84.1111
2.289	84.0056
2.283	83.9959
2.277	84.076
2.271	83.9783
2.265	83.6492
2.259	83.6883
2.253	84.1736
2.247	83.9998
2.241	83.5125
2.236	83.6795
2.23	83.7498
2.224	83.6072
2.218	83.5789
2.213	83.6482
2.207	83.5711
2.201	83.3445
2.196	83.406
2.19	83.6365
2.185	83.3797
2.179	83.282
2.174	83.8162
2.168	83.45
2.163	83.7615
2.157	83.8953
2.152	83.5203
2.147	83.3201
2.141	83.3328
2.136	83.4773
2.131	83.4265
2.126	83.4851
2.12	83.3826
2.115	83.5017
2.11	83.3084
2.105	83.2322
2.1	83.3904
2.095	83.4998
2.09	83.1756
2.085	83.1424
2.079	82.9412
