Name: Leucite KAlSi2O6
Type: Mineral
Class: Silicates
Subclass: Tectosilicates (Framework Silicates); (Feldspathoid Group)
Particle Size: Coarse  (75-250 micrometers)
Sample No.: leucite.1
Owner: JHU
Wavelength Range: IR
Origin: Lake Latium, Italy via the Smithsonian (sample no. NMNH
Description: The sample was a single small crystal, 1 cm in diameter
Measurement: Bidirectional reflectance
X Units: Wavelength (micrometers)
Y Units: Reflectance (percent)
wavelength	value
25.0442	3.6904
24.3388	4.009
23.6719	4.3479
23.0407	5.3306
22.4422	5.3003
21.8741	4.1055
21.334	3.1186
20.8199	2.5703
20.33	1.7502
19.8627	1.2476
19.4163	1.6011
18.9896	1.6697
18.5812	1.8254
18.19	1.5547
17.815	1.8481
17.4551	2.0449
17.1094	2.0615
16.7772	2.147
16.4576	2.1321
16.15	2.1802
15.8537	2.3667
15.568	2.1455
15.2925	2.051
15.0265	2.2168
14.7697	2.3704
14.5214	2.5019
14.2814	2.6438
14.0492	2.7768
13.8244	2.6252
13.6067	2.4477
13.3957	2.293
13.1912	2.1804
12.9929	2.0332
12.8004	1.7644
12.6135	1.553
12.432	1.6643
12.2557	1.8503
12.0843	1.9846
11.9176	2.1716
11.7555	2.3308
11.5977	2.4004
11.444	2.5229
11.2944	2.5898
11.1487	2.6824
11.0067	2.8389
10.8682	3.0388
10.7332	3.3581
10.6015	3.956
10.473	4.4839
10.3476	4.6731
10.2251	4.6814
10.1056	4.8769
9.98873	5.0447
9.87458	5.2783
9.763	5.7576
9.65392	6.2585
9.54724	6.6179
9.44291	7.0571
9.34082	7.2698
9.24091	6.4768
9.14312	5.7431
9.04739	5.6457
8.95363	5.7729
8.8618	5.8293
8.77183	5.8093
8.68368	5.7412
8.59727	5.6208
8.51257	5.3205
8.42951	4.4233
8.34807	3.1377
8.26819	1.7932
8.18981	0.7134
8.11292	0.2515
8.03745	0.2915
7.96337	0.3933
7.89064	0.5112
7.81924	0.6187
7.74911	0.7371
7.68023	0.8462
7.61256	0.9775
7.54608	1.0913
7.48074	1.1963
7.41653	1.3113
7.35341	1.4187
7.29136	1.5132
7.23034	1.5925
7.17033	1.6567
7.11132	1.7173
7.05327	1.7463
6.99616	1.7756
6.93996	1.793
6.88467	1.7915
6.83024	1.7744
6.77667	1.7649
6.72393	1.772
6.67201	1.7959
6.62089	1.8457
6.57054	1.8989
6.52095	1.959
6.4721	1.9595
6.42398	1.9421
6.37657	1.9045
6.32986	1.8813
6.28382	1.8877
6.23845	1.9026
6.19373	1.9094
6.14965	1.8855
6.10619	1.9155
6.06334	2.0078
6.02109	2.0876
5.97942	2.106
5.93832	2.0767
5.89778	2.0288
5.8578	1.9846
5.81835	1.925
5.77943	1.907
5.74103	1.9072
5.70314	1.9311
5.66574	1.979
5.62883	2.0586
5.5924	2.1697
5.55644	2.2961
5.52093	2.4387
5.48588	2.5911
5.45127	2.74
5.41709	2.8997
5.38334	3.1006
5.35	3.344
5.31708	3.6597
5.28456	3.9895
5.25243	4.3149
5.2207	4.6055
5.18934	4.8147
5.15836	5.0156
5.12775	5.187
5.09749	5.282
5.0676	5.2959
5.03805	5.3103
5.00884	5.3303
4.97998	5.352
4.95144	5.3728
4.92322	5.3999
4.89533	5.4346
4.86775	5.5344
4.84048	5.6836
4.81351	5.8733
4.78684	6.0725
4.76047	6.2724
4.73439	6.4543
4.70859	6.624
4.68306	6.8435
4.65782	7.0881
4.63284	7.4143
4.60814	7.7837
4.58369	8.1679
4.5595	8.5493
4.53557	8.8979
4.51188	9.2524
4.48845	9.5769
4.46525	9.8618
4.44229	10.1538
4.41957	10.4785
4.39708	10.8071
4.37481	11.1545
4.35277	11.4821
4.33096	11.7632
4.30935	12.0178
4.28797	12.2321
4.26679	12.3965
4.24583	12.5075
4.22506	12.6089
4.2045	12.676
4.18414	12.7275
4.16398	12.7605
4.14401	12.8071
4.12423	12.8342
4.10464	12.8847
4.08523	12.9289
4.066	12.9787
4.04696	13.0136
4.02809	13.049
4.0094	13.0942
3.99088	13.1252
3.97253	13.1552
3.95435	13.219
3.93634	13.2583
3.91848	13.3093
3.90079	13.3525
3.88326	13.3903
3.86589	13.4004
3.84867	13.4355
3.8316	13.4565
3.81468	13.4878
3.79791	13.4892
3.78129	13.4912
3.76482	13.499
3.74848	13.5036
3.73229	13.509
3.71624	13.5078
3.70032	13.4753
3.68454	13.4687
3.6689	13.4375
3.65338	13.4511
3.638	13.4184
3.62275	13.3903
3.60762	13.3625
3.59262	13.3291
3.57775	13.3161
3.56299	13.2927
3.54836	13.2475
3.53385	13.2072
3.51945	13.1706
3.50517	13.1159
3.49101	13.0864
3.47696	13.0556
3.46303	13.0222
3.4492	12.9721
3.43549	12.9196
3.42188	12.8569
3.40838	12.8166
3.39499	12.7915
3.38171	12.7514
3.36852	12.7404
3.35544	12.6943
3.34246	12.6545
3.32958	12.6098
3.3168	12.5512
3.30411	12.5122
3.29153	12.4533
3.27903	12.3972
3.26664	12.321
3.25433	12.2453
3.24212	12.1755
3.23	12.0722
3.21797	11.998
3.20603	11.8999
3.19418	11.8047
3.18241	11.6894
3.17074	11.5691
3.15914	11.4277
3.14763	11.279
3.13621	11.0844
3.12487	10.9033
3.11361	10.7185
3.10243	10.5061
3.09133	10.3254
3.0803	10.1906
3.06936	10.1223
3.0585	10.0598
3.04771	9.9753
3.037	9.8957
3.02636	9.7925
3.0158	9.6657
3.00531	9.5061
2.99489	9.3764
2.98454	9.1987
2.97427	9.0351
2.96407	8.8447
2.95393	8.7175
2.94387	8.5481
2.93387	8.4316
2.92394	8.3235
2.91408	8.2261
2.90429	8.1396
2.89456	8.0666
2.88489	8.0122
2.87529	7.9407
2.86576	7.896
2.85628	7.8613
2.84687	7.8298
2.83752	7.8039
2.82823	7.7749
2.81901	7.7698
2.80984	7.7385
2.80073	7.6015
2.79168	7.3835
2.78269	7.1987
2.77376	7.156
2.76488	7.3647
2.75606	7.9636
2.7473	8.7964
2.73859	9.4839
2.72994	10.0395
2.72134	10.7881
2.7128	11.5678
2.70431	12.0024
2.69587	12.456
2.68748	12.8425
2.67915	13.0395
2.67087	13.1596
2.66264	13.3376
2.65446	13.3569
2.64633	13.4116
2.63825	13.4353
2.63021	13.4179
2.62223	13.4892
2.6143	13.4887
2.60641	13.4284
2.59857	13.4834
2.59078	13.4555
2.58304	13.4333
2.57534	13.4665
2.56768	13.4233
2.56008	13.3772
2.55251	13.3567
2.54499	13.3134
2.53752	13.2871
2.53009	13.2675
2.5227	13.2622
2.51536	13.2429
2.50806	13.2168
2.5008	13.2314
2.49358	13.1716
2.4864	13.1831
2.47927	13.1704
2.47218	13.144
2.46512	13.1479
2.45811	13.1611
2.45114	13.1777
2.4442	13.1909
2.43731	13.2382
2.43045	13.2258
2.42363	13.2971
2.41685	13.2868
2.41011	13.353
2.40341	13.3694
2.39674	13.2932
2.39011	13.3191
2.38352	13.3239
2.37696	13.3669
2.37044	13.3571
2.36395	13.341
2.35751	13.3454
2.35109	13.3364
2.34471	13.3064
2.33836	13.2754
2.33205	13.3044
2.32578	13.3042
2.31953	13.2475
2.31332	13.2483
2.30714	13.2553
2.301	13.2404
2.29489	13.2854
2.28881	13.2258
2.28276	13.1884
2.27675	13.2111
2.27076	13.25
2.26481	13.2397
2.25889	13.25
2.253	13.1782
2.24714	13.1919
2.24131	13.1604
2.23551	13.2512
2.22974	13.2199
2.224	13.1972
2.21829	13.208
2.21261	13.2014
2.20696	13.1528
2.20134	13.1631
2.19574	13.1584
2.19018	13.1894
2.18464	13.1711
2.17913	13.2004
2.17365	13.1718
2.16819	13.2285
2.16277	13.2446
2.15737	13.2773
2.15199	13.2414
2.14665	13.2343
2.14133	13.2114
2.13603	13.3012
2.13077	13.2512
2.12552	13.3139
2.12031	13.3296
2.11512	13.3567
2.10995	13.3423
2.10481	13.3547
2.0997	13.3867
2.09461	13.3889
2.08954	13.3681
2.0845	13.4238
2.07948	13.3899
