Name: Tremolite Ca2(Mg, Fe+2)5Si8O22(OH)2
Type: Mineral
Class: Silicates
Subclass: Inosilicates (Chain Silicates); (Amphibole Group)
Particle Size: Fine  (0 - 74  Micrometers)
Sample No.: tremol.2
Owner: JHU
Wavelength Range: IR
Origin: Canada via the Smithsonian (sample no. NMNH 117611)
Description: The sample consisted of a single 21.41 g piece of
Measurement: Bidirectional reflectance
X Units: Wavelength (micrometers)
Y Units: Reflectance (percent)
wavelength	value
25.0442	3.2891
24.3388	3.2812
23.6719	3.376
23.0407	3.3918
22.4422	3.7043
21.8741	3.978
21.334	3.8765
20.8199	3.8672
20.33	4.2373
19.8627	4.2119
19.4163	4.3369
18.9896	4.7217
18.5812	5.1357
18.19	5.0803
17.815	5.761
17.4551	5.5554
17.1094	3.9407
16.7772	2.4243
16.4576	1.8242
16.15	1.7881
15.8537	1.9224
15.568	2.0732
15.2925	1.9255
15.0265	1.6645
14.7697	1.5776
14.5214	1.8726
14.2814	2.0781
14.0492	2.0996
13.8244	2.145
13.6067	2.2092
13.3957	2.1199
13.1912	2.2146
12.9929	2.8962
12.8004	3.3547
12.6135	3.5413
12.432	3.5039
12.2557	3.6252
12.0843	3.7175
11.9176	3.3857
11.7555	2.9016
11.5977	2.7168
11.444	2.678
11.2944	2.4778
11.1487	2.2082
11.0067	2.146
10.8682	2.1216
10.7332	2.1155
10.6015	2.1912
10.473	2.5747
10.3476	3.0447
10.2251	3.4365
10.1056	3.6453
9.98873	3.7339
9.87458	3.5356
9.763	2.8997
9.65392	2.3787
9.54724	2.4053
9.44291	2.561
9.34082	2.6973
9.24091	2.7859
9.14312	2.8413
9.04739	2.8672
8.95363	3.1465
8.8618	2.9021
8.77183	2.7473
8.68368	4.1907
8.59727	5.3899
8.51257	4.2566
8.42951	2.3652
8.34807	1.2812
8.26819	1.1697
8.18981	1.6433
8.11292	2.3047
8.03745	3.031
7.96337	3.7497
7.89064	4.4785
7.81924	5.1274
7.74911	5.6726
7.68023	6.1448
7.61256	6.5432
7.54608	6.9199
7.48074	7.2307
7.41653	7.5444
7.35341	7.8459
7.29136	8.0891
7.23034	8.3176
7.17033	8.5852
7.11132	8.9023
7.05327	9.1784
6.99616	9.3874
6.93996	9.5425
6.88467	9.7116
6.83024	9.864
6.77667	10.061
6.72393	10.3139
6.67201	10.6067
6.62089	10.8967
6.57054	11.0342
6.52095	10.958
6.4721	10.6452
6.42398	10.1338
6.37657	9.6308
6.32986	9.1987
6.28382	8.9038
6.23845	8.7461
6.19373	8.7544
6.14965	8.9287
6.10619	9.1672
6.06334	9.4065
6.02109	9.5371
5.97942	9.5671
5.93832	9.5874
5.89778	9.7478
5.8578	9.9773
5.81835	10.1125
5.77943	10.2292
5.74103	10.3039
5.70314	10.3696
5.66574	10.4751
5.62883	10.6291
5.5924	10.8359
5.55644	11.0222
5.52093	11.2341
5.48588	11.5669
5.45127	12.0302
5.41709	12.5085
5.38334	12.9917
5.35	13.3464
5.31708	13.5771
5.28456	13.8237
5.25243	14.0398
5.2207	14.011
5.18934	13.7409
5.15836	13.3022
5.12775	12.8662
5.09749	12.5576
5.0676	12.4196
5.03805	12.4485
5.00884	12.6272
4.97998	12.9052
4.95144	13.229
4.92322	13.5783
4.89533	13.9109
4.86775	14.2231
4.84048	14.4956
4.81351	14.759
4.78684	15.0561
4.76047	15.4397
4.73439	15.8479
4.70859	16.185
4.68306	16.4384
4.65782	16.6806
4.63284	16.955
4.60814	17.3239
4.58369	17.7463
4.5595	18.1877
4.53557	18.6552
4.51188	19.0861
4.48845	19.4743
4.46525	19.8132
4.44229	20.052
4.41957	20.2534
4.39708	20.3747
4.37481	20.4909
4.35277	20.5468
4.33096	20.5742
4.30935	20.6157
4.28797	20.6567
4.26679	20.6823
4.24583	20.7275
4.22506	20.758
4.2045	20.7861
4.18414	20.8212
4.16398	20.8474
4.14401	20.8749
4.12423	20.9045
4.10464	20.9316
4.08523	20.9997
4.066	21.0395
4.04696	21.0732
4.02809	21.1061
4.0094	21.1418
3.99088	21.1547
3.97253	21.1879
3.95435	21.2289
3.93634	21.2797
3.91848	21.3098
3.90079	21.3469
3.88326	21.3715
3.86589	21.361
3.84867	21.3559
3.8316	21.3544
3.81468	21.3544
3.79791	21.3478
3.78129	21.3469
3.76482	21.3171
3.74848	21.3215
3.73229	21.3012
3.71624	21.2712
3.70032	21.2304
3.68454	21.2185
3.6689	21.1701
3.65338	21.1599
3.638	21.143
3.62275	21.1342
3.60762	21.1125
3.59262	21.0771
3.57775	21.0507
3.56299	21.0175
3.54836	20.9775
3.53385	20.9414
3.51945	20.8889
3.50517	20.8259
3.49101	20.8071
3.47696	20.7936
3.46303	20.7775
3.4492	20.7275
3.43549	20.6616
3.42188	20.5659
3.40838	20.5085
3.39499	20.5073
3.38171	20.4785
3.36852	20.4677
3.35544	20.424
3.34246	20.3752
3.32958	20.3225
3.3168	20.3159
3.30411	20.3
3.29153	20.2868
3.27903	20.2358
3.26664	20.1945
3.25433	20.0954
3.24212	20.0878
3.23	20.1059
3.21797	20.1704
3.20603	20.2011
3.19418	20.1657
3.18241	20.1401
3.17074	20.0913
3.15914	20.0568
3.14763	20.0043
3.13621	19.9262
3.12487	19.8662
3.11361	19.8603
3.10243	19.9028
3.09133	19.9199
3.0803	19.937
3.06936	19.9396
3.0585	19.9243
3.04771	19.8955
3.037	19.8718
3.02636	19.8564
3.0158	19.8085
3.00531	19.7497
2.99489	19.7441
2.98454	19.7377
2.97427	19.6965
2.96407	19.6997
2.95393	19.6855
2.94387	19.6704
2.93387	19.6877
2.92394	19.6899
2.91408	19.685
2.90429	19.726
2.89456	19.7626
2.88489	19.7631
2.87529	19.7744
2.86576	19.7958
2.85628	19.8264
2.84687	19.8295
2.83752	19.8344
2.82823	19.8012
2.81901	19.8491
2.80984	19.9187
2.80073	20.0007
2.79168	20.1018
2.78269	20.2055
2.77376	20.2648
2.76488	20.145
2.75606	19.935
2.7473	19.5439
2.73859	17.7807
2.72994	13.8901
2.72134	9.0124
2.7128	14.6845
2.70431	10.6325
2.69587	9.5842
2.68748	13.4975
2.67915	17.746
2.67087	21.1484
2.66264	22.7805
2.65446	22.8652
2.64633	22.9028
2.63825	23.0309
2.63021	23.0803
2.62223	23.1733
2.6143	23.1996
2.60641	23.0959
2.59857	23.1281
2.59078	23.0966
2.58304	23.0424
2.57534	23.0041
2.56768	22.9716
2.56008	22.9494
2.55251	22.9365
2.54499	22.9565
2.53752	22.9872
2.53009	23.0488
2.5227	23.017
2.51536	23.06
2.50806	23.0761
2.5008	23.0229
2.49358	22.9562
2.4864	22.871
2.47927	22.8369
2.47218	22.7031
2.46512	22.6171
2.45811	22.665
2.45114	22.6545
2.4442	22.6332
2.43731	22.6318
2.43045	22.6867
2.42363	22.7441
2.41685	22.7267
2.41011	22.8261
2.40341	22.7978
2.39674	22.3889
2.39011	21.9443
2.38352	21.4943
2.37696	20.9875
2.37044	21.6005
2.36395	22.2238
2.35751	22.5996
2.35109	22.8056
2.34471	22.8886
2.33836	22.8862
2.33205	22.6957
2.32578	22.2895
2.31953	21.2294
2.31332	20.3408
2.30714	20.7622
2.301	21.6796
2.29489	22.2304
2.28881	22.6371
2.28276	22.7924
2.27675	23.0327
2.27076	23.1747
2.26481	23.2582
2.25889	23.3925
2.253	23.4326
2.24714	23.5219
2.24131	23.4985
2.23551	23.5512
2.22974	23.5131
2.224	23.537
2.21829	23.5883
2.21261	23.5703
2.20696	23.4716
2.20134	23.5576
2.19574	23.5473
2.19018	23.5903
2.18464	23.5742
2.17913	23.5009
2.17365	23.5624
2.16819	23.5829
2.16277	23.6005
2.15737	23.5766
2.15199	23.5185
2.14665	23.4511
2.14133	23.4589
2.13603	23.455
2.13077	23.3564
2.12552	23.3378
2.12031	23.3427
2.11512	23.3378
2.10995	23.3461
2.10481	23.3945
2.0997	23.3417
2.09461	23.4238
2.08954	23.5082
2.0845	23.4204
2.07948	23.4438
