Name: Olivine (Fo66) (Fe+2,Mg)2SiO4
Type: Mineral
Class: Silicates
Subclass: Nesosilicates (Isolated tetrahedra); (Olivine Group)
Particle Size: Fine  (less than 2 Micrometer)
Sample No.: olivine.7
Owner: JHU
Wavelength Range: IR
Origin: Kiglapait Intrusion, Labrador via Trude King #KI3054
Description: Initially, the specimen was contaminated with pyroxene,
Measurement: Transmission
X Units: Wavelength (micrometers)
Y Units: Transmittance (percent)
wavelength	value
25.0442	28.8124
24.3388	30.9374
23.6719	39.2421
23.0407	47.7343
22.4422	52.5389
21.8741	52.7596
21.334	51.8846
20.8199	42.7772
20.33	30.6933
19.8627	31.6523
19.4163	30.5976
18.9896	33.3212
18.5812	40.0409
18.19	54.9032
17.815	65.7821
17.4551	67.0233
17.1094	53.3797
16.7772	49.3104
16.4576	57.9969
16.15	71.825
15.8537	81.4666
15.568	85.8299
15.2925	88.6482
15.0265	90.2517
14.7697	90.7439
14.5214	91.0632
14.2814	91.3572
14.0492	91.4085
13.8244	90.5115
13.6067	89.885
13.3957	88.5349
13.1912	87.0886
12.9929	84.6951
12.8004	81.0804
12.6135	77.2127
12.432	72.2757
12.2557	64.8856
12.0843	50.244
11.9176	40.244
11.7555	38.8251
11.5977	26.6161
11.444	14.1372
11.2944	9.3281
11.1487	12.7861
11.0067	16.6572
10.8682	21.7597
10.7332	27.6913
10.6015	27.3412
10.473	36.8358
10.3476	23.9872
10.2251	22.7309
10.1056	24.3925
9.98873	30.2426
9.87458	40.4638
9.763	50.5638
9.65392	58.4124
9.54724	63.6815
9.44291	66.9808
9.34082	68.8675
9.24091	69.9197
9.14312	72.4617
9.04739	76.0867
8.95363	78.9866
8.8618	81.763
8.77183	83.6975
8.68368	85.1643
8.59727	86.2588
8.51257	87.407
8.42951	88.844
8.34807	90.4553
8.26819	91.8093
8.18981	92.823
8.11292	93.5432
8.03745	94.0439
7.96337	94.5271
7.89064	94.8057
7.81924	95.085
7.74911	95.4573
7.68023	95.782
7.61256	95.9255
7.54608	96.0754
7.48074	96.4607
7.41653	96.679
7.35341	96.7117
7.29136	96.7969
7.23034	96.749
7.17033	96.2361
7.11132	95.8293
7.05327	95.3936
6.99616	94.7087
6.93996	94.2908
6.88467	94.3906
6.83024	94.7263
6.77667	95.0254
6.72393	95.488
6.67201	95.9514
6.62089	96.5037
6.57054	96.8787
6.52095	97.1194
6.4721	97.1706
6.42398	97.1765
6.37657	97.2434
6.32986	97.1135
6.28382	96.9512
6.23845	96.7764
6.19373	96.6814
6.14965	96.6592
6.10619	96.4346
6.06334	96.1436
6.02109	96.0186
5.97942	96.2761
5.93832	96.6736
5.89778	97.1619
5.8578	97.4783
5.81835	97.3965
5.77943	97.3855
5.74103	97.2502
5.70314	97.0369
5.66574	96.9402
5.62883	96.9766
5.5924	97.0344
5.55644	97.0437
5.52093	96.9314
5.48588	96.9023
5.45127	96.9661
5.41709	96.9375
5.38334	96.9509
5.35	96.8831
5.31708	96.8936
5.28456	96.8503
5.25243	96.8874
5.2207	96.8457
5.18934	96.8191
5.15836	96.8181
5.12775	96.7412
5.09749	96.6484
5.0676	96.6016
5.03805	96.5359
5.00884	96.5203
4.97998	96.5146
4.95144	96.5107
4.92322	96.529
4.89533	96.5349
4.86775	96.4861
4.84048	96.4465
4.81351	96.364
4.78684	96.3293
4.76047	96.2849
4.73439	96.1682
4.70859	96.0706
4.68306	96.0393
4.65782	95.9216
4.63284	95.8635
4.60814	95.7371
4.58369	95.6272
4.5595	95.5759
4.53557	95.4729
4.51188	95.3855
4.48845	95.2913
4.46525	95.1594
4.44229	95.0867
4.41957	94.9963
4.39708	94.9143
4.37481	94.8123
4.35277	94.6985
4.33096	94.6091
4.30935	94.5745
4.28797	94.4827
4.26679	94.4431
4.24583	94.3455
4.22506	94.2468
4.2045	94.1648
4.18414	94.0769
4.16398	93.9978
4.14401	93.9216
4.12423	93.7932
4.10464	93.7419
4.08523	93.6521
4.066	93.5046
4.04696	93.4197
4.02809	93.3474
4.0094	93.2009
3.99088	93.1052
3.97253	93.0789
3.95435	92.8777
3.93634	92.8084
3.91848	92.7498
3.90079	92.6365
3.88326	92.5339
3.86589	92.408
3.84867	92.3025
3.8316	92.2615
3.81468	92.1462
3.79791	92.0505
3.78129	91.8953
3.76482	91.7898
3.74848	91.6599
3.73229	91.6062
3.71624	91.428
3.70032	91.3504
3.68454	91.2507
3.6689	91.1096
3.65338	91.0271
3.638	90.8889
3.62275	90.7957
3.60762	90.6643
3.59262	90.5764
3.57775	90.4236
3.56299	90.3591
3.54836	90.2048
3.53385	90.1453
3.51945	90.1736
3.50517	90.2966
3.49101	90.0198
3.47696	89.8132
3.46303	89.6682
3.4492	89.658
3.43549	89.7029
3.42188	89.8616
3.40838	89.4783
3.39499	89.1272
3.38171	88.8069
3.36852	88.5398
3.35544	88.2424
3.34246	88.0759
3.32958	87.9451
3.3168	87.8006
3.30411	87.6326
3.29153	87.5369
3.27903	87.3709
3.26664	87.1956
3.25433	87.0818
3.24212	86.9275
3.23	86.6912
3.21797	86.6077
3.20603	86.4217
3.19418	86.2586
3.18241	86.072
3.17074	85.9754
3.15914	85.8435
3.14763	85.6492
3.13621	85.4754
3.12487	85.3015
3.11361	85.2605
3.10243	85.0994
3.09133	85.0017
3.0803	84.8836
3.06936	84.7556
3.0585	84.5857
3.04771	84.449
3.037	84.3972
3.02636	84.2937
3.0158	84.1687
3.00531	84.0428
2.99489	84.114
2.98454	84.114
2.97427	84.0242
2.96407	84.0877
2.95393	84.1775
2.94387	84.117
2.93387	84.0818
2.92394	84.0291
2.91408	83.9851
2.90429	83.9578
2.89456	83.9314
2.88489	83.9881
2.87529	83.8553
2.86576	83.7771
2.85628	83.8904
2.84687	83.9295
2.83752	83.8279
2.82823	83.8006
2.81901	83.825
2.80984	83.7937
2.80073	83.8289
2.79168	83.8709
2.78269	83.9226
2.77376	84.0476
2.76488	84.0135
2.75606	83.9373
2.7473	84.2693
2.73859	84.2693
2.72994	84.4695
2.72134	84.4461
2.7128	84.5672
2.70431	84.3015
2.69587	84.3435
2.68748	84.3054
2.67915	84.2693
2.67087	84.117
2.66264	84.1092
2.65446	84.0398
2.64633	83.9187
2.63825	83.8592
2.63021	83.7693
2.62223	83.8201
2.6143	83.5662
2.60641	83.4295
2.59857	83.408
2.59078	83.3533
2.58304	83.2752
2.57534	83.2263
2.56768	83.1326
2.56008	83.0584
2.55251	83.0193
2.54499	82.9646
2.53752	82.8318
2.53009	82.8084
2.5227	82.6697
2.51536	82.7459
2.50806	82.6326
2.5008	82.6443
2.49358	82.5076
2.4864	82.4236
2.47927	82.1971
2.47218	82.2596
2.46512	82.2146
2.45811	81.9764
2.45114	81.9158
2.4442	81.9451
2.43731	81.9783
2.43045	81.7576
2.42363	81.6111
2.41685	81.7049
2.41011	81.6795
2.40341	81.5076
2.39674	81.4803
2.39011	81.156
2.38352	81.158
2.37696	81.283
2.37044	81.2967
2.36395	81.0701
2.35751	80.992
2.35109	81.0564
2.34471	80.8767
2.33836	80.6717
2.33205	80.6873
2.32578	80.5955
2.31953	80.6404
2.31332	80.6736
2.30714	80.4705
2.301	80.4607
2.29489	80.2205
2.28881	80.2596
2.28276	80.1111
2.27675	80.0857
2.27076	79.9139
2.26481	79.785
2.25889	79.9295
2.253	79.5779
2.24714	79.5779
2.24131	79.5467
2.23551	79.6365
2.22974	79.3514
2.224	79.1912
2.21829	79.3279
2.21261	79.2342
2.20696	78.9607
2.20134	78.9139
2.19574	78.785
2.19018	78.9529
2.18464	78.7576
2.17913	78.4529
2.17365	78.199
2.16819	78.4685
2.16277	78.492
2.15737	77.8123
2.15199	78.0506
2.14665	77.7889
2.14133	77.9178
2.13603	77.7186
2.13077	77.492
2.12552	77.4568
2.12031	77.617
2.11512	77.4217
2.10995	77.2576
2.10481	77.2225
2.0997	76.9256
2.09461	77.0037
2.08954	76.8787
2.0845	76.7811
2.07948	76.6326
