Name: Quartz SiO2
Type: Mineral
Class: Silicates
Subclass: Tectosilicates (Silica Group)
Particle Size: Solid (fracture surface)
Sample No.: quartz.1
Owner: JHU
Wavelength Range: IR
Origin: Brazil, via Bruce Hemingway, USGS
Description: The hand sample appeared entirely pure, being a clear
Measurement: Bidirectional reflectance
X Units: Wavelength (micrometers)
Y Units: Reflectance (percent)
wavelength	value
25.0442	27.9062
24.3388	16.8603
23.6719	19.9853
23.0407	23.4384
22.4422	29.7333
21.8741	39.9501
21.334	45.5258
20.8199	64.4451
20.33	75.3514
19.8627	73.7508
19.4163	43.3358
18.9896	27.1469
18.5812	34.7704
18.19	38.1166
17.815	18.3398
17.4551	10.1614
17.1094	11.176
16.7772	12.0859
16.4576	12.874
16.15	13.5166
15.8537	14.1933
15.568	14.6152
15.2925	15.0178
15.0265	15.6828
14.7697	16.3598
14.5214	17.6835
14.2814	14.9553
14.0492	16.0966
13.8244	16.9692
13.6067	17.748
13.3957	18.6474
13.1912	19.9218
12.9929	22.5849
12.8004	33.4179
12.6135	30.1327
12.432	30.2507
12.2557	9.9543
12.0843	13.2265
11.9176	15.0141
11.7555	16.0761
11.5977	16.8537
11.444	17.4614
11.2944	18.0161
11.1487	18.4848
11.0067	18.9809
10.8682	19.5239
10.7332	20.0581
10.6015	20.6389
10.473	21.2914
10.3476	22.0454
10.2251	22.8774
10.1056	23.83
9.98873	24.944
9.87458	26.4052
9.763	28.3979
9.65392	31.2509
9.54724	35.1908
9.44291	43.5289
9.34082	63.0369
9.24091	74.8084
9.14312	78.1685
9.04739	79.9695
8.95363	80.6311
8.8618	80.7439
8.77183	79.2024
8.68368	75.1546
8.59727	68.6563
8.51257	79.4085
8.42951	79.1453
8.34807	77.8165
8.26819	77.0481
8.18981	76.2842
8.11292	73.3309
8.03745	70.4744
7.96337	67.9788
7.89064	62.0938
7.81924	56.4117
7.74911	53.1803
7.68023	46.5895
7.61256	36.0927
7.54608	24.8141
7.48074	10.9521
7.41653	1.7761
7.35341	0.7261
7.29136	1.6831
7.23034	2.6772
7.17033	3.5254
7.11132	4.3223
7.05327	4.8896
6.99616	5.5224
6.93996	6.0806
6.88467	6.5403
6.83024	6.9104
6.77667	7.3325
6.72393	7.561
6.67201	7.9004
6.62089	8.1553
6.57054	8.2688
6.52095	8.4355
6.4721	8.7988
6.42398	8.9707
6.37657	9.3039
6.32986	9.5952
6.28382	9.7055
6.23845	9.7705
6.19373	9.7282
6.14965	9.8066
6.10619	9.9885
6.06334	10.1445
6.02109	10.1975
5.97942	10.3506
5.93832	10.1506
5.89778	10.3071
5.8578	10.5361
5.81835	10.5996
5.77943	10.7155
5.74103	10.8891
5.70314	11.0591
5.66574	11.1924
5.62883	11.2568
5.5924	11.2988
5.55644	11.3022
5.52093	11.3738
5.48588	11.4719
5.45127	11.6164
5.41709	11.7466
5.38334	11.8261
5.35	11.707
5.31708	11.727
5.28456	11.7236
5.25243	11.7253
5.2207	11.7795
5.18934	11.9008
5.15836	11.9355
5.12775	11.9697
5.09749	12.0175
5.0676	12.0244
5.03805	12.0486
5.00884	12.0424
4.97998	12.0312
4.95144	12.0578
4.92322	12.0993
4.89533	12.1335
4.86775	12.1889
4.84048	12.2282
4.81351	12.2768
4.78684	12.3127
4.76047	12.3618
4.73439	12.396
4.70859	12.4514
4.68306	12.4682
4.65782	12.5127
4.63284	12.55
4.60814	12.5859
4.58369	12.6096
4.5595	12.6645
4.53557	12.6865
4.51188	12.7092
4.48845	12.739
4.46525	12.7544
4.44229	12.7602
4.41957	12.7802
4.39708	12.7758
4.37481	12.8257
4.35277	12.7483
4.33096	12.6357
4.30935	12.5058
4.28797	12.3818
4.26679	12.3716
4.24583	12.2031
4.22506	12.2773
4.2045	12.75
4.18414	12.9482
4.16398	12.9817
4.14401	13.0044
4.12423	13.0366
4.10464	13.031
4.08523	13.0673
4.066	13.0927
4.04696	13.1108
4.02809	13.1162
4.0094	13.1425
3.99088	13.1572
3.97253	13.186
3.95435	13.2065
3.93634	13.2387
3.91848	13.2627
3.90079	13.2558
3.88326	13.2783
3.86589	13.2846
3.84867	13.2905
3.8316	13.2881
3.81468	13.2959
3.79791	13.3188
3.78129	13.3198
3.76482	13.3203
3.74848	13.3276
3.73229	13.31
3.71624	13.3501
3.70032	13.3613
3.68454	13.3515
3.6689	13.3672
3.65338	13.3706
3.638	13.3896
3.62275	13.3891
3.60762	13.3965
3.59262	13.414
3.57775	13.4253
3.56299	13.4316
3.54836	13.4294
3.53385	13.4587
3.51945	13.4714
3.50517	13.5058
3.49101	13.4963
3.47696	13.4851
3.46303	13.5202
3.4492	13.52
3.43549	13.5378
3.42188	13.5774
3.40838	13.5556
3.39499	13.5344
3.38171	13.519
3.36852	13.5151
3.35544	13.5293
3.34246	13.5136
3.32958	13.4985
3.3168	13.5083
3.30411	13.4953
3.29153	13.5048
3.27903	13.4878
3.26664	13.4597
3.25433	13.4868
3.24212	13.4826
3.23	13.4934
3.21797	13.4902
3.20603	13.4699
3.19418	13.4858
3.18241	13.4997
3.17074	13.4865
3.15914	13.4873
3.14763	13.4839
3.13621	13.4775
3.12487	13.5068
3.11361	13.4892
3.10243	13.5088
3.09133	13.4973
3.0803	13.5068
3.06936	13.4865
3.0585	13.4663
3.04771	13.4641
3.037	13.4436
3.02636	13.456
3.0158	13.4404
3.00531	13.4406
2.99489	13.4477
2.98454	13.4101
2.97427	13.4223
2.96407	13.4077
2.95393	13.4016
2.94387	13.4043
2.93387	13.3881
2.92394	13.3564
2.91408	13.3554
2.90429	13.3662
2.89456	13.3657
2.88489	13.344
2.87529	13.3254
2.86576	13.3398
2.85628	13.259
2.84687	13.2763
2.83752	13.2461
2.82823	13.2404
2.81901	13.2861
2.80984	13.248
2.80073	13.3139
2.79168	13.1826
2.78269	13.1279
2.77376	13.1548
2.76488	13.1391
2.75606	12.9726
2.7473	13.1352
2.73859	13.2939
2.72994	13.1714
2.72134	12.9658
2.7128	13.0669
2.70431	13.102
2.69587	12.9902
2.68748	13.0317
2.67915	12.9365
2.67087	12.8437
2.66264	13.082
2.65446	13.083
2.64633	12.9887
2.63825	13.0747
2.63021	13
2.62223	13.0322
2.6143	13.1469
2.60641	13.0127
2.59857	12.9228
2.59078	12.9756
2.58304	13.0332
2.57534	13.0903
2.56768	13.0586
2.56008	13.0547
2.55251	12.9282
2.54499	12.9555
2.53752	12.9248
2.53009	12.9692
2.5227	12.9277
2.51536	12.8779
2.50806	12.9638
2.5008	12.895
2.49358	12.9062
2.4864	12.8906
2.47927	12.8266
2.47218	12.854
2.46512	12.8715
2.45811	12.8281
2.45114	12.7832
2.4442	12.832
2.43731	12.8066
2.43045	12.7993
2.42363	12.7881
2.41685	12.7793
2.41011	12.8105
2.40341	12.7851
2.39674	12.8115
2.39011	12.7856
2.38352	12.7148
2.37696	12.7798
2.37044	12.709
2.36395	12.7343
2.35751	12.727
2.35109	12.7407
2.34471	12.7187
2.33836	12.7207
2.33205	12.6845
2.32578	12.7197
2.31953	12.7558
2.31332	12.6855
2.30714	12.6757
2.301	12.7031
2.29489	12.6513
2.28881	12.7002
2.28276	12.6347
2.27675	12.7177
2.27076	12.6933
2.26481	12.6836
2.25889	12.6767
2.253	12.7109
2.24714	12.7627
2.24131	12.7304
2.23551	12.709
2.22974	12.6601
2.224	12.7353
2.21829	12.6318
2.21261	12.7793
2.20696	12.6816
2.20134	12.6582
2.19574	12.6836
2.19018	12.7158
2.18464	12.7773
2.17913	12.79
2.17365	12.7509
2.16819	12.7392
2.16277	12.7988
2.15737	12.7168
2.15199	12.7949
2.14665	12.7402
2.14133	12.8134
2.13603	12.8359
2.13077	12.7734
2.12552	12.7236
2.12031	12.7783
2.11512	12.7822
2.10995	12.8554
2.10481	12.8457
2.0997	12.8408
2.09461	12.8291
2.08954	12.8457
2.0845	12.8593
2.07948	12.9033
