Name: Kyanite Al2SiO5
Type: Mineral
Class: Silicates
Subclass: Nesosilicates (Isolated Tetrahedra); (Al2SiO5 Group)
Particle Size: Fine  (0-74 micrometers)
Sample No.: kyanite.1
Owner: JHU
Wavelength Range: IR
Origin: Brazil (?) via the Smithsonian (sample no. NMNH 139740)
Description: The sample consisted of two blue crystals, each about 1.5
Measurement: Bidirectional reflectance
X Units: Wavelength (micrometers)
Y Units: Reflectance (percent)
wavelength	value
25.0442	3.4365
24.3388	4.0713
23.6719	4.0693
23.0407	4.719
22.4422	4.4844
21.8741	3.937
21.334	4.4018
20.8199	3.2405
20.33	3.5146
19.8627	4.2226
19.4163	4.5044
18.9896	4.3921
18.5812	3.812
18.19	4.0405
17.815	2.5449
17.4551	3.2344
17.1094	3.6548
16.7772	3.873
16.4576	3.7937
16.15	4.7368
15.8537	4.3603
15.568	5.1208
15.2925	4.0561
15.0265	3.6731
14.7697	4.1936
14.5214	4.7131
14.2814	5.0464
14.0492	4.4377
13.8244	3.469
13.6067	3.6384
13.3957	3.5566
13.1912	3.4534
12.9929	3.2588
12.8004	2.6709
12.6135	2.1623
12.432	2.0625
12.2557	2.3198
12.0843	2.5701
11.9176	2.7175
11.7555	2.7048
11.5977	2.4592
11.444	2.1675
11.2944	2.0254
11.1487	2.2378
11.0067	2.0979
10.8682	2.2004
10.7332	2.6304
10.6015	2.9941
10.473	3.2627
10.3476	3.6714
10.2251	4.0188
10.1056	3.6704
9.98873	3.2012
9.87458	3.7029
9.763	4.2732
9.65392	4.5542
9.54724	4.8347
9.44291	5.2453
9.34082	5.5786
9.24091	5.8022
9.14312	5.7942
9.04739	5.1435
8.95363	4.1311
8.8618	3.4629
8.77183	2.4519
8.68368	1.4541
8.59727	0.8174
8.51257	0.6377
8.42951	0.8171
8.34807	1.2168
8.26819	1.7593
8.18981	2.3286
8.11292	2.8303
8.03745	3.3352
7.96337	3.8655
7.89064	4.3545
7.81924	4.8398
7.74911	5.1831
7.68023	5.5454
7.61256	5.8674
7.54608	6.1477
7.48074	6.4075
7.41653	6.6142
7.35341	6.8625
7.29136	7.1513
7.23034	7.3579
7.17033	7.4704
7.11132	7.678
7.05327	7.7746
6.99616	7.8386
6.93996	7.9143
6.88467	7.9472
6.83024	8.0505
6.77667	8.1089
6.72393	8.2864
6.67201	8.605
6.62089	8.7956
6.57054	9.0825
6.52095	9.3745
6.4721	9.6042
6.42398	9.8386
6.37657	10.1023
6.32986	10.3757
6.28382	10.5493
6.23845	10.7124
6.19373	10.8745
6.14965	11.0893
6.10619	11.365
6.06334	11.768
6.02109	12.0805
5.97942	12.3557
5.93832	12.7434
5.89778	13.1958
5.8578	13.4624
5.81835	13.2285
5.77943	12.9863
5.74103	13.0664
5.70314	12.8059
5.66574	11.2507
5.62883	10.2956
5.5924	9.5473
5.55644	9.0161
5.52093	8.7539
5.48588	8.7473
5.45127	8.9407
5.41709	9.0444
5.38334	9.1152
5.35	9.1755
5.31708	9.2177
5.28456	9.4565
5.25243	9.6255
5.2207	9.6147
5.18934	9.6211
5.15836	9.7002
5.12775	9.8816
5.09749	10.539
5.0676	11.3904
5.03805	12.1648
5.00884	12.9577
4.97998	13.601
4.95144	14.1545
4.92322	14.8147
4.89533	15.3601
4.86775	15.8952
4.84048	16.4919
4.81351	17.0683
4.78684	17.635
4.76047	18.0524
4.73439	18.291
4.70859	18.4604
4.68306	18.5852
4.65782	18.7124
4.63284	18.833
4.60814	18.935
4.58369	18.9875
4.5595	19.0383
4.53557	19.0754
4.51188	19.1057
4.48845	19.1506
4.46525	19.1938
4.44229	19.2302
4.41957	19.2717
4.39708	19.3
4.37481	19.3239
4.35277	19.3269
4.33096	19.3176
4.30935	19.3029
4.28797	19.2954
4.26679	19.298
4.24583	19.3181
4.22506	19.343
4.2045	19.3579
4.18414	19.362
4.16398	19.3505
4.14401	19.3586
4.12423	19.3518
4.10464	19.3596
4.08523	19.3872
4.066	19.4208
4.04696	19.4414
4.02809	19.4438
4.0094	19.4528
3.99088	19.4541
3.97253	19.4658
3.95435	19.497
3.93634	19.5268
3.91848	19.5695
3.90079	19.5957
3.88326	19.6083
3.86589	19.5881
3.84867	19.5898
3.8316	19.569
3.81468	19.5576
3.79791	19.5351
3.78129	19.5043
3.76482	19.458
3.74848	19.3786
3.73229	19.3305
3.71624	19.2648
3.70032	19.2189
3.68454	19.185
3.6689	19.1501
3.65338	19.1252
3.638	19.0993
3.62275	19.0427
3.60762	18.9877
3.59262	18.923
3.57775	18.8679
3.56299	18.8044
3.54836	18.708
3.53385	18.6367
3.51945	18.4558
3.50517	18.0207
3.49101	18.0949
3.47696	18.0146
3.46303	18.0764
3.4492	17.9074
3.43549	17.6455
3.42188	17.2168
3.40838	17.153
3.39499	17.3984
3.38171	17.2868
3.36852	17.322
3.35544	17.6044
3.34246	17.7148
3.32958	17.8647
3.3168	17.9436
3.30411	17.9846
3.29153	17.9711
3.27903	17.9245
3.26664	17.8737
3.25433	17.8212
3.24212	17.7763
3.23	17.7275
3.21797	17.6669
3.20603	17.6335
3.19418	17.5737
3.18241	17.5212
3.17074	17.4499
3.15914	17.3994
3.14763	17.3327
3.13621	17.259
3.12487	17.2441
3.11361	17.1772
3.10243	17.1176
3.09133	17.0595
3.0803	16.9863
3.06936	16.9121
3.0585	16.8352
3.04771	16.8012
3.037	16.7622
3.02636	16.6977
3.0158	16.6428
3.00531	16.5683
2.99489	16.5444
2.98454	16.4956
2.97427	16.4365
2.96407	16.4028
2.95393	16.3286
2.94387	16.362
2.93387	16.2941
2.92394	16.2844
2.91408	16.1962
2.90429	16.1762
2.89456	16.1967
2.88489	16.226
2.87529	16.2627
2.86576	16.3051
2.85628	16.3659
2.84687	16.4345
2.83752	16.4736
2.82823	16.562
2.81901	16.5839
2.80984	16.6616
2.80073	16.696
2.79168	16.6648
2.78269	16.4003
2.77376	15.9262
2.76488	13.4292
2.75606	14.1909
2.7473	14.8149
2.73859	13.5586
2.72994	14.1245
2.72134	14.2646
2.7128	14.4467
2.70431	13.1587
2.69587	16.2929
2.68748	18.246
2.67915	19.0942
2.67087	19.4301
2.66264	19.7443
2.65446	19.8852
2.64633	19.9941
2.63825	20.0432
2.63021	20.0183
2.62223	20.1201
2.6143	20.0932
2.60641	20.0932
2.59857	20.1181
2.59078	20.1215
2.58304	20.0878
2.57534	20.1186
2.56768	20.0986
2.56008	20.0651
2.55251	20.0825
2.54499	20.0983
2.53752	20.0744
2.53009	20.0305
2.5227	20.0161
2.51536	19.9887
2.50806	20.0305
2.5008	19.9604
2.49358	19.9575
2.4864	19.936
2.47927	19.9797
2.47218	19.9746
2.46512	19.926
2.45811	19.9179
2.45114	19.8999
2.4442	19.8596
2.43731	19.841
2.43045	19.8867
2.42363	19.884
2.41685	19.915
2.41011	19.9174
2.40341	19.9123
2.39674	19.8457
2.39011	19.8303
2.38352	19.7968
2.37696	19.8134
2.37044	19.8674
2.36395	19.8427
2.35751	19.8107
2.35109	19.8037
2.34471	19.8173
2.33836	19.7668
2.33205	19.7294
2.32578	19.7583
2.31953	19.7727
2.31332	19.7695
2.30714	19.7753
2.301	19.7641
2.29489	19.8085
2.28881	19.8105
2.28276	19.7592
2.27675	19.7514
2.27076	19.7597
2.26481	19.7983
2.25889	19.811
2.253	19.7949
2.24714	19.8037
2.24131	19.7402
2.23551	19.872
2.22974	19.8642
2.224	19.7836
2.21829	19.7958
2.21261	19.6806
2.20696	19.5175
2.20134	19.6337
2.19574	19.6411
2.19018	19.708
2.18464	19.6943
2.17913	19.7094
2.17365	19.8012
2.16819	19.7934
2.16277	19.833
2.15737	19.8242
2.15199	19.8227
2.14665	19.9394
2.14133	19.9594
2.13603	19.998
2.13077	20.0527
2.12552	20.1035
2.12031	20.1386
2.11512	20.1508
2.10995	20.1118
2.10481	20.208
2.0997	20.1879
2.09461	20.2539
2.08954	20.2817
2.0845	20.2949
2.07948	20.352
