Name: Lithographic Limestone
Type: Rocks
Class: Sedimentary
Subclass: Limestone
Particle Size: 500 - 1500 Micrometers
Sample No.: limestone.5
Owner: JHU
Wavelength Range: All
Origin: Sample No. 356,  The Hunt and Salisbury Collection at the U.S.
Description: The sample is a homogeneous microcrystalline carbonate
Measurement: Directional (10 Degree) Hemispherical Reflectance
X Units: Wavelength (micrometers)
Y Units: Reflectance (percent)
wavelength	value
14.9831	3.035
14.6445	3.6678
14.3209	3.3462
14.0112	1.3721
13.7147	2.9976
13.4304	3.9352
13.1577	3.8075
12.8959	3.5323
12.6443	3.5354
12.4023	3.848
12.1694	3.9932
11.945	4.1106
11.7289	4.1033
11.5203	4.8616
11.3191	4.9819
11.1248	9.2342
10.937	5.9983
10.7555	5.4385
10.5799	5.0923
10.4099	4.863
10.2454	4.1706
10.0859	3.5984
9.9313	3.1764
9.7814	3.188
9.636	3.1823
9.4948	3.5437
9.3577	3.8734
9.2245	4.1582
9.095	4.5961
8.9691	5.0994
8.8467	6.0568
8.7275	6.6998
8.6116	6.134
8.4986	6.3384
8.3886	7.1004
8.2814	8.1552
8.1769	8.6364
8.075	8.4555
7.9756	8.9758
7.8786	8.7624
7.784	8.8259
7.6916	8.6682
7.6014	7.8862
7.5133	7.8947
7.4272	7.585
7.343	6.6749
7.2607	5.0925
7.1803	4.3058
7.1016	5.2734
7.0246	5.2694
6.9493	5.1718
6.8755	5.438
6.8034	5.6518
6.7327	6.0907
6.6634	6.9449
6.5956	8.8095
6.5292	10.544
6.464	11.8403
6.4002	11.4995
6.3376	7.6105
6.2762	5.6848
6.216	4.6935
6.157	3.7211
6.099	3.2742
6.0421	3.1127
5.9863	3.1395
5.9315	3.0111
5.8777	2.9746
5.8249	2.6414
5.773	2.4065
5.722	2.4446
5.6719	2.6938
5.6227	2.722
5.5744	1.3797
5.5268	2.7347
5.4801	4.5642
5.4341	6.3595
5.3889	8.3489
5.3445	10.2309
5.3008	12.4324
5.2578	14.3624
5.2154	16.2228
5.1738	17.562
5.1328	18.5178
5.0925	14.3295
5.0528	20.5826
5.0137	20.7704
4.9752	20.931
4.9373	21.0757
4.9	21.6838
4.8632	22.3509
4.827	22.8361
4.7913	22.9295
4.7561	21.07
4.7215	15.7409
4.6873	9.0026
4.6536	9.2292
4.6205	14.4114
4.5877	16.677
4.5555	17.2101
4.5237	17.4564
4.4923	18.46
4.4614	21.4839
4.4309	24.2713
4.4008	25.9496
4.3711	26.4715
4.3418	24.3683
4.3129	24.1858
4.2844	24.6345
4.2563	24.2478
4.2285	23.7136
4.2011	22.9427
4.174	21.4081
4.1473	19.3275
4.1209	16.4615
4.0949	13.8855
4.0692	11.2004
4.0438	7.9722
4.0187	5.4813
3.994	3.719
3.9695	3.2785
3.9453	4.1857
3.9214	5.0255
3.8979	5.3182
3.8746	5.5041
3.8515	5.6599
3.8288	6.5837
3.8063	9.2038
3.7841	16.4765
3.7621	20.2999
3.7404	21.9732
3.7189	23.6667
3.6977	24.2147
3.6767	24.2047
3.656	23.6139
3.6355	22.6533
3.6152	21.3918
3.5951	19.1492
3.5753	14.9374
3.5557	14.1843
3.5363	10.9324
3.5171	6.8802
3.4981	5.8186
3.4793	5.1363
3.4607	6.4208
3.4423	6.9226
3.4241	7.0057
3.4061	6.9408
3.3883	6.7857
3.3707	6.6223
3.3533	6.0049
3.336	9.0686
3.3189	12.6637
3.302	14.1597
3.2853	14.971
3.2687	15.451
3.2523	15.6336
3.2361	15.5756
3.22	15.4733
3.204	15.2867
3.1883	14.9232
3.1727	14.5192
3.1572	13.6965
3.1419	13.4758
3.1268	13.4215
3.1117	12.8972
3.0969	12.9474
3.0821	13.1724
3.0675	13.2131
3.0531	13.1892
3.0388	13.2416
3.0246	13.2233
3.0105	13.1374
2.9966	13.1068
2.9828	13.0746
2.9692	13.0239
2.9556	12.8951
2.9422	12.9792
2.9289	12.9912
2.9157	13.1461
2.9027	13.3062
2.8897	13.4762
2.8769	13.6723
2.8642	13.9674
2.8516	14.1597
2.8391	14.3248
2.8267	14.2817
2.8144	14.1194
2.8022	13.7067
2.7902	12.9998
2.7782	12.628
2.7664	12.3684
2.7546	12.6242
2.7429	13.5833
2.7314	14.9374
2.7199	18.2559
2.7085	17.949
2.6973	21.3482
2.6861	36.248
2.675	44.5396
2.664	48.9302
2.6531	51.5827
2.6423	53.0974
2.6315	54.0241
2.6209	54.3978
2.6103	54.6026
2.5999	54.1759
2.5895	52.7379
2.5792	51.0906
2.569	48.7374
2.5588	42.9875
2.5487	34.3468
2.5388	29.162
2.5289	30.6051
2.519	34.2241
2.5093	36.154
2.4996	36.9928
2.49	37.9817
2.4805	40.1393
2.471	43.7451
2.4616	47.7982
2.4523	51.0075
2.4431	53.5355
2.4339	55.8973
2.4248	58.2273
2.4157	60.029
2.4068	60.7802
2.3979	61.0762
2.389	61.5896
2.3802	60.8538
2.3715	58.5364
2.3629	53.4183
2.3543	46.4704
2.3458	41.9825
2.3373	41.2467
2.3289	43.5926
2.3206	46.5215
2.3123	48.3957
2.3041	49.4017
2.2959	50.7267
2.2878	52.6797
2.2798	55.4428
2.2718	58.3429
2.2638	60.5595
2.2559	62.3832
2.2481	63.8768
2.2403	65.247
2.2326	66.1005
2.225	66.6636
2.2173	66.9637
2.2098	66.491
2.2023	67.7383
2.1948	68.8097
2.1874	69.5163
2.18	69.8787
2.1727	69.8621
2.1655	69.4666
2.1583	69.4424
2.1511	69.9653
2.144	71.238
2.1369	72.6811
2.1299	73.1898
2.1229	73.4186
2.116	73.8259
2.1091	74.0833
2.1023	74.422
2.0955	74.6931
2.0887	74.8338
2.082	74.9155
2.06	75.0124
2.028	74.004
1.996	69.3201
1.964	67.941
1.932	66.9962
1.9	66.3136
1.868	73.4624
1.836	78.8731
1.804	79.984
1.772	79.9738
1.74	80.051
1.708	79.7929
1.676	80.8464
1.644	80.6702
1.612	81.0015
1.58	80.7222
1.548	79.6745
1.516	78.0464
1.484	77.1361
1.452	75.7959
1.42	74.1356
1.388	75.1975
1.356	77.3315
1.324	77.139
1.292	76.9511
1.26	76.0977
1.228	75.8059
1.196	75.2692
1.164	74.1168
1.132	73.1117
1.1	71.5397
1.068	70.2759
1.036	70.3179
1.004	69.7797
0.972	68.8571
0.94	68.6972
0.908	68.2556
0.876	68.3725
0.844	68.2658
0.812	68.6889
0.795	69.7388
0.787	69.1737
0.779	69.0661
0.771	68.5996
0.763	68.578
0.755	68.5057
0.747	68.0817
0.739	67.7914
0.731	67.1468
0.723	66.2909
0.715	66.3166
0.707	66.1161
0.699	65.9257
0.691	64.6429
0.683	64.9348
0.675	64.7634
0.667	64.0785
0.659	63.5392
0.651	63.3158
0.643	62.6775
0.635	62.0962
0.627	61.9192
0.619	61.1431
0.611	61.1302
0.603	60.648
0.595	59.8296
0.587	59.9989
0.579	58.9779
0.571	58.1918
0.563	57.1503
0.555	55.0794
0.547	54.4579
0.539	52.8791
0.531	51.1346
0.523	49.0703
0.515	48.2633
0.507	46.4514
0.499	45.7258
0.491	44.3106
0.483	43.2781
0.475	42.4479
0.467	42.0945
0.459	40.8044
0.451	40.5285
0.443	39.3484
0.435	38.0345
0.427	36.7581
0.419	35.2156
0.411	34.0983
0.403	33.2298
