Name: Quartz SiO2
Type: Mineral
Class: Silicates
Subclass: Tectosilicates (Silica Group)
Particle Size: Fine  (0 - 74  Micrometers)
Sample No.: quartz.1
Owner: JHU
Wavelength Range: IR
Origin: Brazil, via Bruce Hemingway, USGS
Description: The hand sample appeared entirely pure, being a clear
Measurement: Bidirectional reflectance
X Units: Wavelength (micrometers)
Y Units: Reflectance (percent)
wavelength	value
25.0442	1.0674
24.3388	1.0432
23.6719	1.2656
23.0407	1.2944
22.4422	1.3081
21.8741	1.7651
21.334	1.8418
20.8199	2.0928
20.33	2.3259
19.8627	2.26
19.4163	1.4961
18.9896	1.2627
18.5812	1.9914
18.19	2.9104
17.815	2.3508
17.4551	2.2429
17.1094	2.6665
16.7772	2.9834
16.4576	3.064
16.15	3.0532
15.8537	3.1108
15.568	2.9817
15.2925	2.8894
15.0265	2.6277
14.7697	2.1553
14.5214	1.168
14.2814	0.7029
14.0492	1.7751
13.8244	2.1372
13.6067	2.0644
13.3957	1.8848
13.1912	1.4236
12.9929	0.9336
12.8004	1.0151
12.6135	0.7327
12.432	0.8169
12.2557	0.4363
12.0843	1.1738
11.9176	1.7278
11.7555	2.0393
11.5977	2.2007
11.444	2.2588
11.2944	2.3408
11.1487	2.3418
11.0067	2.3694
10.8682	2.3347
10.7332	2.1965
10.6015	1.9949
10.473	1.917
10.3476	1.7588
10.2251	1.6179
10.1056	1.4319
9.98873	1.3184
9.87458	1.304
9.763	1.1948
9.65392	1.1208
9.54724	1.1699
9.44291	1.4656
9.34082	2.4602
9.24091	2.792
9.14312	2.7956
9.04739	2.781
8.95363	2.769
8.8618	2.6931
8.77183	2.5574
8.68368	2.2886
8.59727	1.9248
8.51257	2.5532
8.42951	2.5315
8.34807	2.551
8.26819	2.8047
8.18981	3.2537
8.11292	3.1877
8.03745	2.8799
7.96337	2.6711
7.89064	2.1941
7.81924	1.8311
7.74911	1.7983
7.68023	1.5964
7.61256	1.135
7.54608	0.7361
7.48074	0.3394
7.41653	0.1875
7.35341	0.1746
7.29136	0.2307
7.23034	0.4312
7.17033	0.6753
7.11132	0.9961
7.05327	1.1887
6.99616	1.4358
6.93996	1.6934
6.88467	1.7895
6.83024	1.7419
6.77667	1.6467
6.72393	1.4927
6.67201	1.5771
6.62089	1.6636
6.57054	1.5371
6.52095	1.7942
6.4721	2.5373
6.42398	2.8105
6.37657	2.5308
6.32986	2.0691
6.28382	1.6038
6.23845	1.2771
6.19373	1.2444
6.14965	1.741
6.10619	2.3528
6.06334	2.6594
6.02109	2.623
5.97942	2.281
5.93832	1.9807
5.89778	2.3318
5.8578	2.8909
5.81835	3.3376
5.77943	3.7366
5.74103	4.0256
5.70314	4.1138
5.66574	3.5674
5.62883	2.6455
5.5924	2.3057
5.55644	2.3337
5.52093	2.6738
5.48588	3.1216
5.45127	3.3621
5.41709	2.8022
5.38334	1.78
5.35	1.3772
5.31708	1.4331
5.28456	1.6272
5.25243	2.1431
5.2207	2.9997
5.18934	3.3464
5.15836	3.2456
5.12775	3.1487
5.09749	3.0647
5.0676	2.7607
5.03805	2.7082
5.00884	2.6643
4.97998	2.9184
4.95144	3.634
4.92322	4.0317
4.89533	5.2563
4.86775	6.4238
4.84048	7.0576
4.81351	7.4551
4.78684	7.751
4.76047	7.9734
4.73439	8.1096
4.70859	8.0503
4.68306	7.6565
4.65782	8.0493
4.63284	8.4668
4.60814	8.7002
4.58369	8.7886
4.5595	8.7339
4.53557	8.4162
4.51188	7.8574
4.48845	7.3821
4.46525	7.2449
4.44229	7.5078
4.41957	7.727
4.39708	8.018
4.37481	8.3725
4.35277	8.6758
4.33096	8.8374
4.30935	8.8374
4.28797	8.8093
4.26679	8.9355
4.24583	8.9902
4.22506	8.9743
4.2045	8.9875
4.18414	9.0368
4.16398	9.1269
4.14401	9.2065
4.12423	9.3054
4.10464	9.4165
4.08523	9.5178
4.066	9.5918
4.04696	9.6084
4.02809	9.5927
4.0094	9.5918
3.99088	9.6079
3.97253	9.6611
3.95435	9.74
3.93634	9.8105
3.91848	9.8427
3.90079	9.8303
3.88326	9.7893
3.86589	9.75
3.84867	9.738
3.8316	9.7607
3.81468	9.7905
3.79791	9.8052
3.78129	9.7903
3.76482	9.7505
3.74848	9.7187
3.73229	9.7246
3.71624	9.7719
3.70032	9.8569
3.68454	9.9419
3.6689	10.0144
3.65338	10.0713
3.638	10.0945
3.62275	10.1118
3.60762	10.1174
3.59262	10.1311
3.57775	10.1538
3.56299	10.1772
3.54836	10.2094
3.53385	10.2351
3.51945	10.2378
3.50517	10.174
3.49101	10.1975
3.47696	10.2361
3.46303	10.2573
3.4492	10.2322
3.43549	10.1828
3.42188	10.0871
3.40838	10.0942
3.39499	10.1643
3.38171	10.1826
3.36852	10.196
3.35544	10.2549
3.34246	10.2959
3.32958	10.3115
3.3168	10.3064
3.30411	10.3012
3.29153	10.2939
3.27903	10.2798
3.26664	10.2658
3.25433	10.2546
3.24212	10.2468
3.23	10.2368
3.21797	10.2187
3.20603	10.2131
3.19418	10.2043
3.18241	10.1919
3.17074	10.1677
3.15914	10.1489
3.14763	10.1115
3.13621	10.0739
3.12487	10.0437
3.11361	10.042
3.10243	10.0434
3.09133	10.0434
3.0803	10.0212
3.06936	10.0083
3.0585	9.9587
3.04771	9.8996
3.037	9.8669
3.02636	9.8398
3.0158	9.8164
3.00531	9.8142
2.99489	9.8176
2.98454	9.8149
2.97427	9.7644
2.96407	9.6999
2.95393	9.6863
2.94387	9.7378
2.93387	9.7502
2.92394	9.7392
2.91408	9.7346
2.90429	9.7485
2.89456	9.7824
2.88489	9.7949
2.87529	9.748
2.86576	9.7683
2.85628	9.8376
2.84687	9.8847
2.83752	9.9336
2.82823	9.9736
2.81901	9.9931
2.80984	9.9868
2.80073	9.9941
2.79168	10.0136
2.78269	10.0124
2.77376	10.0588
2.76488	10.0796
2.75606	10.0691
2.7473	10.1584
2.73859	10.1206
2.72994	10.2634
2.72134	10.2497
2.7128	10.3496
2.70431	10.3989
2.69587	10.5007
2.68748	10.5681
2.67915	10.5696
2.67087	10.5527
2.66264	10.6506
2.65446	10.6811
2.64633	10.6765
2.63825	10.6963
2.63021	10.6174
2.62223	10.6699
2.6143	10.677
2.60641	10.6264
2.59857	10.6706
2.59078	10.6926
2.58304	10.6396
2.57534	10.6428
2.56768	10.6758
2.56008	10.6623
2.55251	10.6601
2.54499	10.6609
2.53752	10.6589
2.53009	10.6775
2.5227	10.6545
2.51536	10.646
2.50806	10.6562
2.5008	10.6611
2.49358	10.6526
2.4864	10.6552
2.47927	10.656
2.47218	10.6399
2.46512	10.6626
2.45811	10.6648
2.45114	10.6501
2.4442	10.6386
2.43731	10.6284
2.43045	10.6394
2.42363	10.6423
2.41685	10.6333
2.41011	10.6325
2.40341	10.6491
2.39674	10.6201
2.39011	10.6211
2.38352	10.6445
2.37696	10.6372
2.37044	10.6142
2.36395	10.6159
2.35751	10.6294
2.35109	10.6504
2.34471	10.6435
2.33836	10.6255
2.33205	10.6184
2.32578	10.6335
2.31953	10.6489
2.31332	10.6538
2.30714	10.6606
2.301	10.6577
2.29489	10.6855
2.28881	10.6811
2.28276	10.6884
2.27675	10.707
2.27076	10.6748
2.26481	10.6806
2.25889	10.6797
2.253	10.674
2.24714	10.6714
2.24131	10.6501
2.23551	10.6716
2.22974	10.6914
2.224	10.6772
2.21829	10.7221
2.21261	10.7182
2.20696	10.6838
2.20134	10.7129
2.19574	10.7202
2.19018	10.7495
2.18464	10.7353
2.17913	10.7422
2.17365	10.7617
2.16819	10.7817
2.16277	10.7964
2.15737	10.7998
2.15199	10.7798
2.14665	10.7827
2.14133	10.7783
2.13603	10.7973
2.13077	10.8376
2.12552	10.8708
2.12031	10.8603
2.11512	10.8471
2.10995	10.862
2.10481	10.8452
2.0997	10.8806
2.09461	10.914
2.08954	10.9009
2.0845	10.9133
2.07948	10.8652
