Name: Rutile TiO2
Type: Mineral
Class: Oxides
Subclass: (Rutile Group)
Particle Size: Fine  (less than 2  Micrometers)
Sample No.: rutile.1
Owner: JHU
Wavelength Range: IR
Origin: White Plains, Alexander County, North Carolina vie the
Description: The sample was composed of three small crystals with a
Measurement: Transmission
X Units: Wavelength (micrometers)
Y Units: Transmittance (percent)
wavelength	value
25.0442	21.7734
24.3388	21.1054
23.6719	23.6113
23.0407	28.0761
22.4422	32.329
21.8741	32.0663
21.334	30.1523
20.8199	28.2187
20.33	24.957
19.8627	20.4457
19.4163	16.6611
18.9896	14.8769
18.5812	14.5097
18.19	14.7231
17.815	15.0102
17.4551	15.1684
17.1094	15.2485
16.7772	15.393
16.4576	15.7998
16.15	16.5688
15.8537	17.9941
15.568	19.5732
15.2925	21.3803
15.0265	23.1298
14.7697	24.9731
14.5214	26.728
14.2814	28.2309
14.0492	29.3788
13.8244	30.3283
13.6067	31.1542
13.3957	32.4982
13.1912	34.9291
12.9929	38.787
12.8004	43.8427
12.6135	49.1593
12.432	54.2364
12.2557	58.9735
12.0843	63.0606
11.9176	66.241
11.7555	68.5487
11.5977	69.7816
11.444	70.3367
11.2944	70.3978
11.1487	70.3924
11.0067	70.511
10.8682	70.804
10.7332	71.1719
10.6015	71.8294
10.473	72.9637
10.3476	74.3028
10.2251	75.6556
10.1056	76.5821
9.98873	76.5147
9.87458	75.6871
9.763	74.4376
9.65392	73.3331
9.54724	72.6436
9.44291	72.2916
9.34082	72.4739
9.24091	73.199
9.14312	74.169
9.04739	75.1658
8.95363	76.2198
8.8618	76.9747
8.77183	77.7959
8.68368	78.3733
8.59727	78.9725
8.51257	79.7591
8.42951	80.9593
8.34807	82.4148
8.26819	84.0545
8.18981	85.6126
8.11292	86.7224
8.03745	87.2598
7.96337	87.3274
7.89064	87.1258
7.81924	86.8045
7.74911	86.5183
7.68023	86.1106
7.61256	85.6778
7.54608	85.2615
7.48074	84.7556
7.41653	84.2491
7.35341	83.7166
7.29136	83.118
7.23034	82.5037
7.17033	81.595
7.11132	81.0774
7.05327	80.9685
6.99616	80.5882
6.93996	79.9949
6.88467	79.4285
6.83024	78.9544
6.77667	78.7273
6.72393	78.3194
6.67201	77.8445
6.62089	77.3216
6.57054	76.9031
6.52095	76.3313
6.4721	75.7737
6.42398	75.2718
6.37657	74.636
6.32986	74.0926
6.28382	73.5967
6.23845	72.9817
6.19373	72.0794
6.14965	70.9915
6.10619	70.6614
6.06334	70.532
6.02109	70.6595
5.97942	70.9632
5.93832	70.8128
5.89778	70.4722
5.8578	70.0721
5.81835	69.9144
5.77943	69.5638
5.74103	69.1795
5.70314	68.8709
5.66574	68.4979
5.62883	68.1326
5.5924	67.7838
5.55644	67.4156
5.52093	67.0794
5.48588	66.7208
5.45127	66.348
5.41709	66.0365
5.38334	65.6322
5.35	65.294
5.31708	64.9227
5.28456	64.599
5.25243	64.2772
5.2207	63.9398
5.18934	63.6131
5.15836	63.3138
5.12775	62.9749
5.09749	62.6541
5.0676	62.3128
5.03805	61.9823
5.00884	61.6707
4.97998	61.37
4.95144	61.0453
4.92322	60.7313
4.89533	60.3983
4.86775	60.086
4.84048	59.8094
4.81351	59.5123
4.78684	59.2298
4.76047	58.9308
4.73439	58.6375
4.70859	58.3368
4.68306	58.0633
4.65782	57.785
4.63284	57.5106
4.60814	57.2567
4.58369	56.961
4.5595	56.7191
4.53557	56.4344
4.51188	56.1983
4.48845	55.8712
4.46525	55.6092
4.44229	55.338
4.41957	55.0655
4.39708	54.836
4.37481	54.5819
4.35277	54.3075
4.33096	54.0372
4.30935	53.8343
4.28797	53.6197
4.26679	53.3385
4.24583	53.0968
4.22506	52.8636
4.2045	52.6134
4.18414	52.3783
4.16398	52.1202
4.14401	51.9025
4.12423	51.6464
4.10464	51.4181
4.08523	51.1534
4.066	50.9357
4.04696	50.6835
4.02809	50.4354
4.0094	50.1932
3.99088	49.9835
3.97253	49.7836
3.95435	49.5609
3.93634	49.34
3.91848	49.1185
3.90079	48.8646
3.88326	48.6805
3.86589	48.4164
3.84867	48.2157
3.8316	48.0157
3.81468	47.8309
3.79791	47.6241
3.78129	47.4259
3.76482	47.2335
3.74848	47.0304
3.73229	46.7865
3.71624	46.5956
3.70032	46.3583
3.68454	46.1459
3.6689	45.8939
3.65338	45.743
3.638	45.5392
3.62275	45.3527
3.60762	45.1857
3.59262	44.9657
3.57775	44.6886
3.56299	44.4618
3.54836	44.2377
3.53385	44.0304
3.51945	43.7094
3.50517	43.2492
3.49101	43.2216
3.47696	43.0978
3.46303	42.8847
3.4492	42.5936
3.43549	42.1884
3.42188	41.6376
3.40838	41.7064
3.39499	41.7804
3.38171	41.6137
3.36852	41.4218
3.35544	41.258
3.34246	41.1242
3.32958	40.9227
3.3168	40.8466
3.30411	40.6381
3.29153	40.422
3.27903	40.2274
3.26664	40.0145
3.25433	39.7755
3.24212	39.5431
3.23	39.2929
3.21797	38.9923
3.20603	38.789
3.19418	38.6366
3.18241	38.3817
3.17074	38.1449
3.15914	37.9574
3.14763	37.7895
3.13621	37.5668
3.12487	37.3402
3.11361	37.161
3.10243	36.995
3.09133	36.7719
3.0803	36.5175
3.06936	36.3798
3.0585	36.2255
3.04771	36.0048
3.037	35.8651
3.02636	35.6894
3.0158	35.5185
3.00531	35.3149
2.99489	35.0219
2.98454	34.768
2.97427	34.6659
2.96407	34.4394
2.95393	34.3183
2.94387	34.1015
2.93387	33.9692
2.92394	33.8559
2.91408	33.7777
2.90429	33.8163
2.89456	33.7157
2.88489	33.6757
2.87529	33.7113
2.86576	33.7426
2.85628	33.7734
2.84687	33.7992
2.83752	33.9125
2.82823	34.0741
2.81901	34.1444
2.80984	34.1586
2.80073	34.2323
2.79168	34.2968
2.78269	34.4164
2.77376	34.4901
2.76488	34.6806
2.75606	34.7626
2.7473	34.8007
2.73859	34.8358
2.72994	34.8456
2.72134	34.6996
2.7128	34.5863
2.70431	34.7108
2.69587	34.727
2.68748	34.5453
2.67915	34.3324
2.67087	34.2538
2.66264	34.1835
2.65446	34.0819
2.64633	34.0448
2.63825	33.8827
2.63021	33.7567
2.62223	33.6488
2.6143	33.5526
2.60641	33.5473
2.59857	33.3319
2.59078	33.3051
2.58304	33.2055
2.57534	33.1698
2.56768	32.9848
2.56008	32.8632
2.55251	32.7519
2.54499	32.578
2.53752	32.4618
2.53009	32.5185
2.5227	32.4989
2.51536	32.4589
2.50806	32.2294
2.5008	32.2665
2.49358	32.1259
2.4864	31.9296
2.47927	31.8564
2.47218	31.7236
2.46512	31.7421
2.45811	31.6093
2.45114	31.4823
2.4442	31.4599
2.43731	31.4062
2.43045	31.372
2.42363	31.3769
2.41685	31.2978
2.41011	31.0273
2.40341	31.2167
2.39674	31.1894
2.39011	30.9316
2.38352	30.7714
2.37696	30.7128
2.37044	30.6259
2.36395	30.5507
2.35751	30.6601
2.35109	30.7187
2.34471	30.3788
2.33836	30.2587
2.33205	30.3105
2.32578	30.3202
2.31953	30.082
2.31332	29.9696
2.30714	30.0546
2.301	30.0165
2.29489	29.8671
2.28881	29.8368
2.28276	29.8984
2.27675	29.8905
2.27076	29.6767
2.26481	29.6132
2.25889	29.4023
2.253	29.4267
2.24714	29.3798
2.24131	29.4335
2.23551	29.3681
2.22974	29.3593
2.224	29.414
2.21829	29.1679
2.21261	29.0634
2.20696	29.0038
2.20134	28.8671
2.19574	28.957
2.19018	29.0322
2.18464	28.914
2.17913	28.9218
2.17365	28.7519
2.16819	28.9511
2.16277	28.6601
2.15737	28.6034
2.15199	28.6406
2.14665	28.4745
2.14133	28.289
2.13603	28.332
2.13077	28.4042
2.12552	28.1972
2.12031	28.0488
2.11512	27.9941
2.10995	28.2284
2.10481	28.4863
2.0997	28.08
2.09461	27.9999
2.08954	28.2128
2.0845	28.1562
2.07948	27.8085
