Name: Olivine (Fo51) (Fe+2,Mg)2SiO4
Type: Mineral
Class: Silicates
Subclass: Nesosilicates (Isolated tetrahedra); (Olivine Group)
Particle Size: 0-60 micrometers.  (Packed powder simulates coarse.)
Sample No.: olivine.5
Owner: JHU
Wavelength Range: IR
Origin: Kiglapait Intrusion, Labrador via Trude King #KI3188
Description: Initially, the specimen was contaminated with pyroxene,
Measurement: Bidirectional reflectance
X Units: Wavelength (micrometers)
Y Units: Reflectance (percent)
wavelength	value
25.0442	9.685
24.3388	8.8762
23.6719	7.2549
23.0407	6.146
22.4422	5.8418
21.8741	5.772
21.334	6.1694
20.8199	7.3808
20.33	7.8662
19.8627	7.8154
19.4163	8.7312
18.9896	9.456
18.5812	9.6987
18.19	8.4756
17.815	5.9355
17.4551	4.741
17.1094	4.8481
16.7772	5.1828
16.4576	5.4377
16.15	5.1894
15.8537	4.2466
15.568	3.5815
15.2925	3.6501
15.0265	3.9233
14.7697	4.1743
14.5214	4.4001
14.2814	4.6694
14.0492	4.8108
13.8244	4.9353
13.6067	5.0908
13.3957	5.168
13.1912	5.2407
12.9929	5.2463
12.8004	5.29
12.6135	5.2483
12.432	5.1841
12.2557	5.209
12.0843	5.3472
11.9176	5.0845
11.7555	5.583
11.5977	6.2681
11.444	7.2842
11.2944	8.1345
11.1487	8.7561
11.0067	9.456
10.8682	10.1933
10.7332	10.583
10.6015	8.3576
10.473	7.8955
10.3476	9.6513
10.2251	9.0854
10.1056	8.4555
9.98873	8.0195
9.87458	7.7012
9.763	7.5688
9.65392	7.5461
9.54724	7.2849
9.44291	6.2375
9.34082	4.7429
9.24091	3.5342
9.14312	3.0566
9.04739	3.0649
8.95363	3.2412
8.8618	3.6496
8.77183	3.9424
8.68368	4.1626
8.59727	4.3567
8.51257	4.5745
8.42951	4.7578
8.34807	4.9299
8.26819	5.115
8.18981	5.2685
8.11292	5.3982
8.03745	5.456
7.96337	5.4756
7.89064	5.49
7.81924	5.5107
7.74911	5.4914
7.68023	5.4785
7.61256	5.5212
7.54608	5.6015
7.48074	5.6821
7.41653	5.7358
7.35341	5.7939
7.29136	5.8415
7.23034	5.8782
7.17033	5.8965
7.11132	5.9206
7.05327	5.9692
6.99616	5.9941
6.93996	6.008
6.88467	6.02
6.83024	6.0578
6.77667	6.0991
6.72393	6.1028
6.67201	6.0928
6.62089	6.0906
6.57054	6.0923
6.52095	6.0708
6.4721	6.0571
6.42398	6.032
6.37657	6.0119
6.32986	5.9883
6.28382	5.9719
6.23845	5.9443
6.19373	5.8955
6.14965	5.8081
6.10619	5.6416
6.06334	5.4333
6.02109	5.406
5.97942	5.4524
5.93832	5.4634
5.89778	5.4836
5.8578	5.5027
5.81835	5.5119
5.77943	5.4375
5.74103	5.281
5.70314	5.1528
5.66574	5.1521
5.62883	5.2453
5.5924	5.3286
5.55644	5.3494
5.52093	5.3642
5.48588	5.4028
5.45127	5.4707
5.41709	5.5268
5.38334	5.5698
5.35	5.5984
5.31708	5.6338
5.28456	5.6855
5.25243	5.7368
5.2207	5.7959
5.18934	5.8342
5.15836	5.8635
5.12775	5.8938
5.09749	5.9111
5.0676	5.926
5.03805	5.97
5.00884	6.0439
4.97998	6.1189
4.95144	6.2085
4.92322	6.2707
4.89533	6.3252
4.86775	6.3662
4.84048	6.4099
4.81351	6.4253
4.78684	6.4477
4.76047	6.4707
4.73439	6.4922
4.70859	6.5254
4.68306	6.5488
4.65782	6.5781
4.63284	6.5969
4.60814	6.635
4.58369	6.6719
4.5595	6.6972
4.53557	6.7148
4.51188	6.7483
4.48845	6.7761
4.46525	6.8149
4.44229	6.8513
4.41957	6.8838
4.39708	6.9282
4.37481	6.9548
4.35277	6.9868
4.33096	7.011
4.30935	7.0332
4.28797	7.0744
4.26679	7.1086
4.24583	7.143
4.22506	7.1582
4.2045	7.1911
4.18414	7.2151
4.16398	7.2378
4.14401	7.2588
4.12423	7.2778
4.10464	7.3056
4.08523	7.3393
4.066	7.3542
4.04696	7.3894
4.02809	7.416
4.0094	7.4389
3.99088	7.4604
3.97253	7.4792
3.95435	7.4975
3.93634	7.5349
3.91848	7.562
3.90079	7.5932
3.88326	7.6189
3.86589	7.6257
3.84867	7.646
3.8316	7.6589
3.81468	7.6887
3.79791	7.7031
3.78129	7.7295
3.76482	7.7461
3.74848	7.7612
3.73229	7.7724
3.71624	7.7795
3.70032	7.7878
3.68454	7.8022
3.6689	7.813
3.65338	7.8215
3.638	7.8481
3.62275	7.854
3.60762	7.8601
3.59262	7.8659
3.57775	7.8535
3.56299	7.8528
3.54836	7.8503
3.53385	7.8376
3.51945	7.7827
3.50517	7.574
3.49101	7.6875
3.47696	7.7363
3.46303	7.7295
3.4492	7.6775
3.43549	7.5686
3.42188	7.3406
3.40838	7.4404
3.39499	7.6426
3.38171	7.6401
3.36852	7.716
3.35544	7.8113
3.34246	7.8388
3.32958	7.8401
3.3168	7.8345
3.30411	7.8428
3.29153	7.8308
3.27903	7.8188
3.26664	7.8061
3.25433	7.7973
3.24212	7.7783
3.23	7.7514
3.21797	7.7312
3.20603	7.7258
3.19418	7.7012
3.18241	7.676
3.17074	7.6423
3.15914	7.6289
3.14763	7.5937
3.13621	7.5637
3.12487	7.5622
3.11361	7.5408
3.10243	7.5146
3.09133	7.4958
3.0803	7.4885
3.06936	7.4653
3.0585	7.4436
3.04771	7.4304
3.037	7.4075
3.02636	7.4013
3.0158	7.3677
3.00531	7.3393
2.99489	7.3174
2.98454	7.3052
2.97427	7.2754
2.96407	7.2722
2.95393	7.239
2.94387	7.2234
2.93387	7.1916
2.92394	7.186
2.91408	7.1618
2.90429	7.1467
2.89456	7.1252
2.88489	7.1033
2.87529	7.0918
2.86576	7.0666
2.85628	7.0525
2.84687	7.0368
2.83752	7.0093
2.82823	6.9504
2.81901	6.9419
2.80984	6.9328
2.80073	6.917
2.79168	6.9211
2.78269	6.9153
2.77376	6.9043
2.76488	6.9109
2.75606	6.895
2.7473	6.8821
2.73859	6.9189
2.72994	6.9226
2.72134	7.0119
2.7128	7.1811
2.70431	7.5715
2.69587	7.853
2.68748	7.947
2.67915	7.9866
2.67087	8.0071
2.66264	7.9966
2.65446	7.9714
2.64633	7.9743
2.63825	7.9634
2.63021	7.9629
2.62223	7.9546
2.6143	7.9472
2.60641	7.9365
2.59857	7.935
2.59078	7.9204
2.58304	7.9153
2.57534	7.9023
2.56768	7.8728
2.56008	7.8667
2.55251	7.8481
2.54499	7.8176
2.53752	7.8481
2.53009	7.8069
2.5227	7.81
2.51536	7.7851
2.50806	7.7844
2.5008	7.7737
2.49358	7.7795
2.4864	7.7434
2.47927	7.7585
2.47218	7.7436
2.46512	7.7353
2.45811	7.7492
2.45114	7.7295
2.4442	7.7095
2.43731	7.6933
2.43045	7.7075
2.42363	7.6592
2.41685	7.6911
2.41011	7.6816
2.40341	7.6543
2.39674	7.6553
2.39011	7.6286
2.38352	7.6323
2.37696	7.6211
2.37044	7.5854
2.36395	7.5986
2.35751	7.5957
2.35109	7.5762
2.34471	7.5742
2.33836	7.562
2.33205	7.5386
2.32578	7.5478
2.31953	7.5307
2.31332	7.5322
2.30714	7.5513
2.301	7.5381
2.29489	7.5332
2.28881	7.5483
2.28276	7.5229
2.27675	7.522
2.27076	7.5449
2.26481	7.5386
2.25889	7.5361
2.253	7.5561
2.24714	7.5466
2.24131	7.5346
2.23551	7.552
2.22974	7.5359
2.224	7.5139
2.21829	7.5107
2.21261	7.5298
2.20696	7.511
2.20134	7.5012
2.19574	7.4953
2.19018	7.5185
2.18464	7.5163
2.17913	7.529
2.17365	7.5051
2.16819	7.5071
2.16277	7.5513
2.15737	7.5359
2.15199	7.4973
2.14665	7.5395
2.14133	7.5586
2.13603	7.5539
2.13077	7.5598
2.12552	7.5776
2.12031	7.5552
2.11512	7.5801
2.10995	7.5483
2.10481	7.561
2.0997	7.561
2.09461	7.6294
2.08954	7.6211
2.0845	7.6054
2.07948	7.6125
