Name: Nontronite Na0.33Fe2+3(Si,Al)4O10.3H2O
Type: Mineral
Class: Silicates
Subclass: Phyllosilicates (Sheet Silicates); (Smectite Group)
Particle Size: Fine  (Less than 2 micrometers)
Sample No.: nontron.1
Owner: JHU
Wavelength Range: IR
Origin: Holen Hagen, Germany via the Hunt and Salisbury Collection
Description: Brown, earthy clay. Less than 2 �m fraction is nontronite, plus a faint
Measurement: Transmission
X Units: Wavelength (micrometers)
Y Units: Transmittance (percent)
wavelength	value
25.0442	55.6639
24.3388	47.3944
23.6719	39.5624
23.0407	37.5487
22.4422	39.2616
21.8741	40.3671
21.334	44.1112
20.8199	43.2938
20.33	38.0048
19.8627	43.5526
19.4163	46.9139
18.9896	50.9081
18.5812	55.5877
18.19	61.1278
17.815	65.7791
17.4551	69.3289
17.1094	72.1014
16.7772	74.5066
16.4576	76.7127
16.15	79.1873
15.8537	81.43
15.568	82.0369
15.2925	81.865
15.0265	80.159
14.7697	78.305
14.5214	80.7351
14.2814	83.7796
14.0492	86.0427
13.8244	87.1892
13.6067	87.1648
13.3957	86.2058
13.1912	84.4358
12.9929	82.4041
12.8004	79.3064
12.6135	78.6658
12.432	76.8519
12.2557	72.4886
12.0843	73.5281
11.9176	73.4402
11.7555	72.5804
11.5977	71.6336
11.444	68.866
11.2944	69.2069
11.1487	67.848
11.0067	63.2982
10.8682	58.2362
10.7332	53.8295
10.6015	49.5199
10.473	44.4921
10.3476	39.4474
10.2251	34.871
10.1056	30.7255
9.98873	27.7089
9.87458	26.049
9.763	25.467
9.65392	25.8935
9.54724	28.6545
9.44291	32.8713
9.34082	37.7953
9.24091	42.4701
9.14312	45.8407
9.04739	48.1312
8.95363	50.4198
8.8618	52.8754
8.77183	55.9842
8.68368	59.6456
8.59727	63.2833
8.51257	66.4669
8.42951	69.8709
8.34807	72.8389
8.26819	75.2156
8.18981	77.2967
8.11292	79.3631
8.03745	81.0408
7.96337	82.6065
7.89064	83.9099
7.81924	84.7205
7.74911	85.572
7.68023	86.3028
7.61256	87.0271
7.54608	87.742
7.48074	88.3186
7.41653	88.7774
7.35341	89.2588
7.29136	89.7166
7.23034	90.0293
7.17033	90.6882
7.11132	90.9895
7.05327	91.1272
6.99616	91.4495
6.93996	92.0227
6.88467	92.2793
6.83024	92.3528
6.77667	92.5625
6.72393	92.8171
6.67201	93.1052
6.62089	93.3359
6.57054	93.6536
6.52095	93.6379
6.4721	93.9377
6.42398	94.1687
6.37657	94.1062
6.32986	93.9954
6.28382	93.656
6.23845	92.7383
6.19373	90.739
6.14965	88.9807
6.10619	89.4949
6.06334	91.1321
6.02109	92.9072
5.97942	94.2634
5.93832	94.2415
5.89778	94.1624
5.8578	94.2517
5.81835	94.6433
5.77943	94.793
5.74103	94.9143
5.70314	94.9319
5.66574	94.9075
5.62883	94.9666
5.5924	94.9504
5.55644	94.9978
5.52093	95.0291
5.48588	95.1072
5.45127	95.2244
5.41709	95.3679
5.38334	95.3376
5.35	95.4773
5.31708	95.5378
5.28456	95.6628
5.25243	95.7922
5.2207	95.9062
5.18934	95.9866
5.15836	96.0928
5.12775	96.1396
5.09749	96.1973
5.0676	96.2478
5.03805	96.3203
5.00884	96.4075
4.97998	96.4646
4.95144	96.5452
4.92322	96.5144
4.89533	96.5117
4.86775	96.5261
4.84048	96.5666
4.81351	96.5693
4.78684	96.6074
4.76047	96.6013
4.73439	96.6423
4.70859	96.6501
4.68306	96.6348
4.65782	96.6316
4.63284	96.6543
4.60814	96.8249
4.58369	96.7175
4.5595	96.6946
4.53557	96.699
4.51188	96.655
4.48845	96.634
4.46525	96.6257
4.44229	96.6584
4.41957	96.6533
4.39708	96.6853
4.37481	96.7588
4.35277	96.6963
4.33096	96.6531
4.30935	96.6394
4.28797	96.6758
4.26679	96.6523
4.24583	96.6951
4.22506	96.7322
4.2045	96.6631
4.18414	96.6853
4.16398	96.6064
4.14401	96.5662
4.12423	96.5593
4.10464	96.5798
4.08523	96.531
4.066	96.5276
4.04696	96.4812
4.02809	96.4407
4.0094	96.4495
3.99088	96.3596
3.97253	96.3181
3.95435	96.3513
3.93634	96.363
3.91848	96.303
3.90079	96.3142
3.88326	96.2239
3.86589	96.0627
3.84867	96.0886
3.8316	96.0486
3.81468	96.0623
3.79791	95.9631
3.78129	95.9343
3.76482	95.8811
3.74848	95.8123
3.73229	95.7595
3.71624	95.6335
3.70032	95.573
3.68454	95.4968
3.6689	95.4514
3.65338	95.365
3.638	95.2639
3.62275	95.1433
3.60762	95.0779
3.59262	95.0398
3.57775	94.9031
3.56299	94.8562
3.54836	94.7791
3.53385	94.658
3.51945	94.5295
3.50517	94.4646
3.49101	94.2971
3.47696	94.1897
3.46303	94.1599
3.4492	94.0125
3.43549	93.9265
3.42188	93.7722
3.40838	93.5056
3.39499	93.51
3.38171	93.3816
3.36852	93.3303
3.35544	93.0764
3.34246	92.9182
3.32958	92.7439
3.3168	92.5789
3.30411	92.4021
3.29153	92.2644
3.27903	92.0164
3.26664	91.7224
3.25433	91.4744
3.24212	91.2527
3.23	90.969
3.21797	90.6638
3.20603	90.3069
3.19418	89.9319
3.18241	89.6629
3.17074	89.2586
3.15914	88.8181
3.14763	88.574
3.13621	88.1716
3.12487	87.8225
3.11361	87.4802
3.10243	87.135
3.09133	86.7849
3.0803	86.5525
3.06936	86.3616
3.0585	85.9905
3.04771	85.6658
3.037	85.1521
3.02636	84.6839
3.0158	84.1272
3.00531	83.5921
2.99489	83.117
2.98454	82.6189
2.97427	82.0877
2.96407	81.781
2.95393	81.5291
2.94387	81.3748
2.93387	81.2303
2.92394	81.2459
2.91408	81.2068
2.90429	81.4002
2.89456	81.45
2.88489	81.4744
2.87529	81.3894
2.86576	81.3553
2.85628	81.0974
2.84687	80.5564
2.83752	79.16
2.82823	76.3816
2.81901	73.2391
2.80984	70.6932
2.80073	69.5945
2.79168	70.5369
2.78269	73.4256
2.77376	76.4617
2.76488	78.2156
2.75606	79.9392
2.7473	82.1482
2.73859	84.6746
2.72994	86.5535
2.72134	88.0906
2.7128	89.3484
2.70431	90.0974
2.69587	90.6013
2.68748	90.8093
2.67915	90.99
2.67087	91.0349
2.66264	90.8474
2.65446	90.8162
2.64633	90.8123
2.63825	90.6922
2.63021	90.7195
2.62223	90.6804
2.6143	90.6267
2.60641	90.6287
2.59857	90.49
2.59078	90.49
2.58304	90.4734
2.57534	90.3054
2.56768	90.2039
2.56008	90.2029
2.55251	90.1179
2.54499	89.8748
2.53752	89.9812
2.53009	89.8875
2.5227	89.5047
2.51536	89.7156
2.50806	89.6531
2.5008	89.5506
2.49358	89.3728
2.4864	89.3015
2.47927	89.2468
2.47218	89.3015
2.46512	89.1804
2.45811	89.2
2.45114	89.0584
2.4442	88.8572
2.43731	89.0115
2.43045	88.8572
2.42363	88.8318
2.41685	88.6365
2.41011	88.8533
2.40341	88.5935
2.39674	88.5017
2.39011	88.367
2.38352	88.2634
2.37696	88.5252
2.37044	88.5232
2.36395	88.2498
2.35751	88.0974
2.35109	88.4295
2.34471	88.0955
2.33836	87.8826
2.33205	87.8474
2.32578	87.7986
2.31953	88.1599
2.31332	87.822
2.30714	87.6853
2.301	87.8787
2.29489	87.9177
2.28881	87.5642
2.28276	87.5408
2.27675	87.7967
2.27076	87.7205
2.26481	87.6658
2.25889	87.6795
2.253	87.6267
2.24714	87.7439
2.24131	87.5506
2.23551	87.5408
2.22974	87.7674
2.224	87.4939
2.21829	87.5818
2.21261	87.4549
2.20696	87.531
2.20134	87.322
2.19574	87.5271
2.19018	87.5701
2.18464	87.5193
2.17913	87.406
2.17365	87.7029
2.16819	87.656
2.16277	87.617
2.15737	87.8064
2.15199	87.4842
2.14665	87.5154
2.14133	87.4705
2.13603	87.447
2.13077	87.7049
2.12552	87.7283
2.12031	87.7185
2.11512	87.5935
2.10995	87.4842
2.10481	87.4685
2.0997	87.7185
2.09461	87.9295
2.08954	87.6345
2.0845	88.0466
2.07948	88.3045
