Name: Spodumene LiAlSi2O6
Type: Mineral
Class: Silicates
Subclass: Inosilicates (Framework silicates); Pyroxene Group
Particle Size: Solid (cleavage face)
Sample No.: spodum.1
Owner: JHU
Wavelength Range: IR
Origin: Anita Mine, Pala Chief Hill, Pala, San Diego Co., California, USA
Description: The hand sample was 3 cm x 1 cm x 1 cm, transparent,
Measurement: Bidirectional reflectance
X Units: Wavelength (micrometers)
Y Units: Reflectance (percent)
wavelength	value
25.0442	25.5859
24.3388	22.9492
23.6719	20.9306
23.0407	23.6806
22.4422	28.1073
21.8741	31.1298
21.334	40.9198
20.8199	49.576
20.33	51.1268
19.8627	40.4325
19.4163	36.039
18.9896	41.7167
18.5812	45.8798
18.19	46.2919
17.815	41.4374
17.4551	46.5233
17.1094	51.3905
16.7772	53.2713
16.4576	51.1359
16.15	45.006
15.8537	40.0568
15.568	36.1147
15.2925	31.1359
15.0265	24.6796
14.7697	15.8859
14.5214	11.5119
14.2814	12.511
14.0492	13.7121
13.8244	14.6682
13.6067	15.3752
13.3957	16.0722
13.1912	16.6591
12.9929	17.1921
12.8004	17.6679
12.6135	18.122
12.432	18.571
12.2557	19.2338
12.0843	20.0358
11.9176	21.0803
11.7555	22.8266
11.5977	23.5888
11.444	17.5288
11.2944	19.3325
11.1487	21.1186
11.0067	22.83
10.8682	25.1337
10.7332	28.3202
10.6015	30.5204
10.473	31.5619
10.3476	31.5651
10.2251	30.9482
10.1056	29.714
9.98873	27.1039
9.87458	24.8823
9.763	27.2626
9.65392	31.3857
9.54724	35.1584
9.44291	39.1513
9.34082	45.0248
9.24091	47.3485
9.14312	55.2398
9.04739	56.0379
8.95363	55.7528
8.8618	54.3285
8.77183	49.1935
8.68368	40.4664
8.59727	37.3256
8.51257	38.7291
8.42951	37.5756
8.34807	32.0453
8.26819	29.2802
8.18981	29.4467
8.11292	28.8427
8.03745	27.0912
7.96337	23.8434
7.89064	19.1228
7.81924	13.3347
7.74911	6.9228
7.68023	5.3628
7.61256	6.2317
7.54608	7.0781
7.48074	7.7182
7.41653	8.2514
7.35341	8.6787
7.29136	9.0669
7.23034	9.4121
7.17033	9.6523
7.11132	9.9482
7.05327	10.0659
6.99616	10.3457
6.93996	10.5771
6.88467	10.7077
6.83024	10.8244
6.77667	11.0874
6.72393	11.1181
6.67201	11.373
6.62089	11.5612
6.57054	11.5822
6.52095	11.6162
6.4721	11.862
6.42398	11.7446
6.37657	11.8254
6.32986	11.997
6.28382	12.0136
6.23845	12.0747
6.19373	12.06
6.14965	12.205
6.10619	12.3735
6.06334	12.3862
6.02109	12.228
5.97942	12.3706
5.93832	12.1662
5.89778	12.2226
5.8578	12.455
5.81835	12.4882
5.77943	12.4038
5.74103	12.5141
5.70314	12.5962
5.66574	12.584
5.62883	12.5976
5.5924	12.593
5.55644	12.5742
5.52093	12.6357
5.48588	12.6098
5.45127	12.6926
5.41709	12.7824
5.38334	12.7299
5.35	12.7619
5.31708	12.7986
5.28456	12.8457
5.25243	12.8552
5.2207	12.8354
5.18934	12.8977
5.15836	12.894
5.12775	12.9089
5.09749	12.9052
5.0676	12.8872
5.03805	12.8935
5.00884	12.885
4.97998	12.8845
4.95144	12.8994
4.92322	12.8698
4.89533	12.8798
4.86775	12.8713
4.84048	12.8623
4.81351	12.8706
4.78684	12.8615
4.76047	12.8608
4.73439	12.8965
4.70859	12.8857
4.68306	12.8999
4.65782	12.9091
4.63284	12.936
4.60814	12.9546
4.58369	12.9741
4.5595	12.9853
4.53557	12.9863
4.51188	12.9792
4.48845	12.9956
4.46525	13.0075
4.44229	13.0171
4.41957	13.0327
4.39708	13.0429
4.37481	13.0486
4.35277	13.0507
4.33096	13.0642
4.30935	13.165
4.28797	13.289
4.26679	13.3462
4.24583	13.2451
4.22506	13.4814
4.2045	13.165
4.18414	13.0312
4.16398	13.0185
4.14401	13.0319
4.12423	13.0302
4.10464	13.042
4.08523	13.0549
4.066	13.0476
4.04696	13.0503
4.02809	13.0605
4.0094	13.0605
3.99088	13.0717
3.97253	13.0879
3.95435	13.0923
3.93634	13.0913
3.91848	13.1037
3.90079	13.101
3.88326	13.1108
3.86589	13.0898
3.84867	13.0825
3.8316	13.0942
3.81468	13.0747
3.79791	13.0766
3.78129	13.0942
3.76482	13.0708
3.74848	13.0874
3.73229	13.0581
3.71624	13.0551
3.70032	13.0586
3.68454	13.0483
3.6689	13.039
3.65338	13.039
3.638	13.0317
3.62275	13.0322
3.60762	13.0273
3.59262	13.0371
3.57775	13.0234
3.56299	13.0258
3.54836	13.0112
3.53385	13.018
3.51945	13.0246
3.50517	13.0212
3.49101	13.0171
3.47696	13.0127
3.46303	13.0075
3.4492	13.0102
3.43549	12.998
3.42188	13.0119
3.40838	12.9914
3.39499	12.9673
3.38171	12.9538
3.36852	12.9463
3.35544	12.9196
3.34246	12.9162
3.32958	12.8972
3.3168	12.8872
3.30411	12.8755
3.29153	12.8723
3.27903	12.854
3.26664	12.8269
3.25433	12.8225
3.24212	12.7978
3.23	12.809
3.21797	12.7839
3.20603	12.7592
3.19418	12.758
3.18241	12.7524
3.17074	12.7422
3.15914	12.7319
3.14763	12.7353
3.13621	12.7251
3.12487	12.729
3.11361	12.718
3.10243	12.7072
3.09133	12.685
3.0803	12.6904
3.06936	12.6924
3.0585	12.6623
3.04771	12.6513
3.037	12.6382
3.02636	12.6299
3.0158	12.6123
3.00531	12.6028
2.99489	12.5918
2.98454	12.549
2.97427	12.5361
2.96407	12.5188
2.95393	12.5168
2.94387	12.4934
2.93387	12.4648
2.92394	12.4336
2.91408	12.415
2.90429	12.425
2.89456	12.396
2.88489	12.3808
2.87529	12.3381
2.86576	12.3393
2.85628	12.3127
2.84687	12.3017
2.83752	12.2949
2.82823	12.2265
2.81901	12.2964
2.80984	12.1965
2.80073	12.3579
2.79168	12.1933
2.78269	12.1626
2.77376	12.1777
2.76488	12.2031
2.75606	11.9067
2.7473	12.103
2.73859	12.4316
2.72994	12.0634
2.72134	11.9961
2.7128	12.0136
2.70431	12.0786
2.69587	11.9419
2.68748	12.0278
2.67915	11.9946
2.67087	11.7793
2.66264	12.1176
2.65446	12.0454
2.64633	11.9087
2.63825	12.0024
2.63021	12.0117
2.62223	11.9424
2.6143	12.1054
2.60641	11.9531
2.59857	11.8794
2.59078	11.9594
2.58304	12.0986
2.57534	12.0493
2.56768	12.0224
2.56008	12.0708
2.55251	11.833
2.54499	11.8515
2.53752	11.7998
2.53009	11.8872
2.5227	11.8418
2.51536	11.8227
2.50806	11.8447
2.5008	11.7993
2.49358	11.8423
2.4864	11.7646
2.47927	11.7705
2.47218	11.7622
2.46512	11.7739
2.45811	11.7212
2.45114	11.7539
2.4442	11.7177
2.43731	11.7295
2.43045	11.7231
2.42363	11.6972
2.41685	11.6977
2.41011	11.6958
2.40341	11.6704
2.39674	11.6816
2.39011	11.6347
2.38352	11.6196
2.37696	11.625
2.37044	11.604
2.36395	11.6528
2.35751	11.6196
2.35109	11.6059
2.34471	11.6255
2.33836	11.6367
2.33205	11.5742
2.32578	11.6406
2.31953	11.6347
2.31332	11.582
2.30714	11.6113
2.301	11.5791
2.29489	11.5752
2.28881	11.5986
2.28276	11.5556
2.27675	11.6045
2.27076	11.5586
2.26481	11.5508
2.25889	11.5957
2.253	11.58
2.24714	11.5713
2.24131	11.5859
2.23551	11.5361
2.22974	11.5849
2.224	11.5879
2.21829	11.5097
2.21261	11.5527
2.20696	11.5293
2.20134	11.4629
2.19574	11.5468
2.19018	11.5332
2.18464	11.5283
2.17913	11.5879
2.17365	11.5019
2.16819	11.5644
2.16277	11.5918
2.15737	11.455
2.15199	11.4853
2.14665	11.5439
2.14133	11.5244
2.13603	11.5703
2.13077	11.5664
2.12552	11.6025
2.12031	11.5097
2.11512	11.5244
2.10995	11.5566
2.10481	11.4375
2.0997	11.5556
2.09461	11.4922
2.08954	11.5039
2.0845	11.5078
2.07948	11.58
