Name: Olivine (Fo88) (Fe+2,Mg)2SiO4
Type: Mineral
Class: Silicates
Subclass: Nesosilicates (Isolated tetrahedra); (Olivine Group)
Particle Size: Fine  (Less than 2 Micrometers)
Sample No.: olivine.9
Owner: JHU
Wavelength Range: IR
Origin: South Point, Hawaii via Trude King #GSB
Description: Samples of olivine from an olivine sand beach were
Measurement: Transmission
X Units: Wavelength (micrometers)
Y Units: Transmittance (percent)
wavelength	value
25.044	10.3203
24.339	3.625
23.672	3.4883
23.041	8.0781
22.442	17.3378
21.874	20.8769
21.334	22.3378
20.82	26.9648
20.33	16.5429
19.863	6.3291
19.416	6.8066
18.99	8.1074
18.581	10.8838
18.19	16.8877
17.815	34.8398
17.455	47.7616
17.109	48.7587
16.777	28.5956
16.458	19.5488
16.15	29.2275
15.854	48.1151
15.568	60.5301
15.292	67.7205
15.027	71.6131
14.77	74.6092
14.521	76.535
14.281	77.9822
14.049	78.9163
13.824	79.285
13.607	78.9432
13.396	77.4866
13.191	75.6092
12.993	73.119
12.8	68.8397
12.614	62.9334
12.432	54.9906
12.256	44.4867
12.084	29.3808
11.918	15.6591
11.755	18.9433
11.598	9.4638
11.444	2.727
11.294	0.8643
11.149	1.5322
11.007	2.4028
10.868	3.4438
10.733	6.5683
10.602	9.5283
10.473	7.9878
10.348	12.8081
10.225	5.3203
10.106	4.5654
9.989	5.8618
9.875	10.459
9.763	18.6762
9.654	28.5663
9.547	37.6269
9.443	45.1469
9.341	51.2416
9.241	55.8192
9.143	59.513
9.047	63.2567
8.954	66.4437
8.862	69.2112
8.772	71.657
8.684	73.7872
8.597	75.7498
8.513	77.5994
8.43	79.3045
8.348	81.0774
8.268	82.6648
8.19	83.918
8.113	85.2136
8.037	86.2324
7.963	87.1931
7.891	87.9534
7.819	88.5608
7.749	89.1797
7.68	89.6602
7.613	90.0593
7.546	90.4597
7.481	90.833
7.417	91.24
7.353	91.6709
7.291	91.9963
7.23	92.2097
7.17	92.5852
7.111	92.6768
7.053	92.7793
6.996	92.9275
6.94	93.0759
6.885	93.2966
6.83	93.5615
6.777	93.8259
6.724	94.1091
6.672	94.4502
6.621	94.5947
6.571	94.9031
6.521	94.7773
6.472	94.8142
6.424	94.74
6.377	94.4251
6.33	94.0596
6.284	93.6162
6.238	93.2219
6.194	92.7351
6.15	92.2283
6.106	92.4766
6.063	92.4939
6.021	91.9873
5.979	92.492
5.938	93.7976
5.898	94.6113
5.858	94.9143
5.818	95.3386
5.779	95.3425
5.741	95.3708
5.703	95.1033
5.666	94.6091
5.629	94.3362
5.592	94.6729
5.556	95.1292
5.521	95.2678
5.486	95.2566
5.451	95.2737
5.417	95.418
5.383	95.469
5.35	95.6208
5.317	95.6355
5.285	95.6335
5.252	95.6094
5.221	95.5703
5.189	95.675
5.158	95.7126
5.128	95.7751
5.097	95.7839
5.068	95.7158
5.038	95.6992
5.009	95.6316
4.98	95.5247
4.951	95.446
4.923	95.5273
4.895	95.5859
4.868	95.6833
4.84	95.7187
4.814	95.7175
4.787	95.6658
4.76	95.6208
4.734	95.5413
4.709	95.4568
4.683	95.3796
4.658	95.3196
4.633	95.2371
4.608	95.1306
4.584	95.0876
4.56	95.0002
4.536	94.8699
4.512	94.7874
4.488	94.781
4.465	94.6301
4.442	94.5652
4.42	94.5061
4.397	94.4197
4.375	94.3381
4.353	94.2512
4.331	94.1838
4.309	94.0261
4.288	93.9094
4.267	93.8767
4.246	93.7673
4.225	93.6326
4.205	93.6057
4.184	93.5149
4.164	93.4114
4.144	93.2673
4.124	93.2239
4.105	93.0999
4.085	93.0393
4.066	92.9163
4.047	92.8357
4.028	92.717
4.009	92.6589
3.991	92.5115
3.973	92.3777
3.954	92.3147
3.936	92.158
3.918	92.0486
3.901	91.9441
3.883	91.8049
3.866	91.6882
3.849	91.5496
3.832	91.4026
3.815	91.2556
3.798	91.1316
3.781	91.0418
3.765	90.8777
3.748	90.7478
3.732	90.6155
3.716	90.5042
3.7	90.3494
3.685	90.1233
3.669	89.9983
3.653	89.907
3.638	89.7185
3.623	89.5921
3.608	89.4129
3.593	89.2752
3.578	89.1179
3.563	88.971
3.548	88.7932
3.534	88.572
3.519	88.3621
3.505	88.1297
3.491	88.0095
3.477	87.9378
3.463	87.7058
3.449	87.5178
3.435	87.2835
3.422	87.0398
3.408	86.8718
3.395	86.8406
3.382	86.7146
3.369	86.6448
3.355	86.5037
3.342	86.3894
3.33	86.1795
3.317	85.9417
3.304	85.8089
3.292	85.6702
3.279	85.4729
3.267	85.2556
3.254	85.0056
3.242	84.8616
3.23	84.6853
3.218	84.4378
3.206	84.2224
3.194	83.9002
3.182	83.6346
3.171	83.3787
3.159	83.117
3.148	82.8518
3.136	82.4436
3.125	82.1697
3.114	81.8831
3.102	81.7039
3.091	81.3201
3.08	81.1043
3.069	80.8221
3.058	80.5369
3.048	80.2918
3.037	80.0076
3.026	79.5574
3.016	79.2322
3.005	78.7967
2.995	78.4705
2.985	78.1307
2.974	77.8123
2.964	77.3689
2.954	77.0145
2.944	76.8611
2.934	76.5984
2.924	76.3963
2.914	76.325
2.904	76.3846
2.895	76.4412
2.885	76.5115
2.875	76.6883
2.866	76.8006
2.856	77.0916
2.847	77.2312
2.838	77.5164
2.828	77.7439
2.819	78.0252
2.81	78.2303
2.801	78.4656
2.792	78.7303
2.783	79.1678
2.774	79.3992
2.765	79.7342
2.756	80.1521
2.747	80.4217
2.739	80.7771
2.73	80.8006
2.721	81.0193
2.713	80.9295
2.704	80.9021
2.696	81.0271
2.687	80.9295
2.679	80.9881
2.671	81.1131
2.663	80.5291
2.654	80.4969
2.646	80.3211
2.638	80.2732
2.63	80.325
2.622	79.9969
2.614	79.8992
2.606	79.7898
2.599	79.5701
2.591	79.5789
2.583	79.4773
2.575	79.2898
2.568	79.1209
2.56	79.0213
2.553	78.8006
2.545	78.6326
2.538	78.6268
2.53	78.3982
2.523	78.3885
2.515	78.283
2.508	78.1521
2.501	78.0916
2.494	77.9725
2.486	77.785
2.479	77.7127
2.472	77.4217
2.465	77.4666
2.458	77.3943
2.451	77.2225
2.444	77.0408
2.437	76.9451
2.43	76.7186
2.424	76.7498
2.417	76.5975
2.41	76.4705
2.403	76.2283
2.397	76.1834
2.39	76.0643
2.384	75.992
2.377	75.8592
2.37	75.7498
2.364	75.6522
2.358	75.3689
2.351	75.324
2.345	75.2674
2.338	74.91
2.332	74.8904
2.326	74.9022
2.32	74.7772
2.313	74.5701
2.307	74.4393
2.301	74.4451
2.295	74.2596
2.289	74.0428
2.283	73.8377
2.277	74.0955
2.271	73.7107
2.265	73.6404
2.259	73.5565
2.253	73.4842
2.247	73.3455
2.241	73.2361
2.236	73.3201
2.23	73.1111
2.224	72.9236
2.218	72.9608
2.213	72.7283
2.207	72.3123
2.201	72.4373
2.196	72.3983
2.19	72.1111
2.185	72.2967
2.179	71.992
2.174	71.8787
2.168	71.8709
2.163	71.6912
2.157	71.7264
2.152	71.3084
2.147	71.1795
2.141	71.0858
2.136	71.16
2.131	71.1326
2.126	70.9334
2.12	70.9529
2.115	71.0076
2.11	70.5506
2.105	70.4256
2.1	70.3201
2.095	70.3514
2.09	70.2342
2.085	70.242
2.079	69.9803
