Name: ALHA 77231
Type: Stony Meteorites
Class: Ordinary Chondrite
Subclass: L6
Particle Size: 0-75 micrometers
Sample No.: ALHA 77231
Owner: JHU
Origin: Meteorite found in Antarctica in 1977.  Smithsonian sample No. USNM
Description: None.
Measurement: Bidirectional reflectance
X Units: Wavelength (micrometers)
Y Units: Reflectance (percent)
wavelength	value
25.044	1.2424
24.339	1.1748
23.672	1.3013
23.041	1.3037
22.442	1.0234
21.874	1.0642
21.334	1.0427
20.82	1.1465
20.33	1.4062
19.863	1.4936
19.416	1.491
18.99	1.3169
18.581	1.2937
18.19	1.2366
17.815	1.1313
17.455	1.1645
17.109	1.0955
16.777	1.0933
16.458	1.0498
16.15	1.0044
15.854	0.8704
15.568	0.7795
15.292	0.7129
15.027	0.8843
14.77	0.9158
14.521	1.0923
14.281	1.2485
14.049	1.3206
13.824	1.3088
13.607	1.4329
13.396	1.5847
13.191	1.7949
12.993	1.9165
12.8	1.8638
12.614	1.8113
12.432	1.7617
12.256	1.5962
12.084	1.3618
11.918	1.1663
11.755	1.2068
11.598	1.334
11.444	1.6248
11.294	1.7117
11.149	1.6025
11.007	1.5371
10.868	1.6111
10.733	1.6829
10.602	1.6411
10.473	1.4453
10.348	1.3506
10.225	1.4006
10.106	1.2747
9.9887	1.2129
9.8746	1.1704
9.763	1.1794
9.6539	1.304
9.5472	1.4504
9.4429	1.5173
9.3408	1.51
9.2409	1.4253
9.1431	1.3975
9.0474	1.4311
8.9536	1.3599
8.8618	1.343
8.7718	1.2534
8.6837	1.2383
8.5973	1.2122
8.5126	1.3318
8.4295	1.4871
8.3481	1.7322
8.2682	2.0276
8.1898	2.3249
8.1129	2.5557
8.0374	2.7764
7.9634	2.978
7.8906	3.1301
7.8192	3.2732
7.7491	3.4375
7.6802	3.5532
7.6126	3.6052
7.5461	3.71
7.4807	3.8149
7.4165	3.9097
7.3534	4.0415
7.2914	4.1653
7.2303	4.2876
7.1703	4.4011
7.1113	4.4961
7.0533	4.6059
6.9962	4.7248
6.94	4.8374
6.8847	4.8918
6.8302	4.9121
6.7767	4.9473
6.7239	4.9578
6.672	4.9643
6.6209	4.9565
6.5705	4.9695
6.5209	5.0666
6.4721	5.1316
6.424	5.1684
6.3766	5.134
6.3299	5.0434
6.2838	4.9805
6.2385	4.9587
6.1937	4.9209
6.1496	4.9548
6.1062	4.9028
6.0633	4.7666
6.0211	4.6567
5.9794	4.7685
5.9383	4.9702
5.8978	5.1506
5.8578	5.31
5.8184	5.396
5.7794	5.4675
5.741	5.4216
5.7031	5.2847
5.6657	5.1277
5.6288	5.1391
5.5924	5.3286
5.5564	5.52
5.5209	5.6133
5.4859	5.6326
5.4513	5.6765
5.4171	5.7561
5.3833	5.8137
5.35	5.8816
5.3171	5.9087
5.2846	5.8721
5.2524	5.8782
5.2207	5.9172
5.1893	5.9233
5.1584	5.9309
5.1277	6.0276
5.0975	6.1067
5.0676	6.1721
5.038	6.2507
5.0088	6.2883
4.98	6.3359
4.9514	6.4455
4.9232	6.5891
4.8953	6.7402
4.8678	6.8479
4.8405	6.9309
4.8135	7.0329
4.7868	7.1367
4.7605	7.2224
4.7344	7.281
4.7086	7.3388
4.6831	7.3972
4.6578	7.4885
4.6328	7.5766
4.6081	7.6716
4.5837	7.7243
4.5595	7.7785
4.5356	7.8247
4.5119	7.8562
4.4884	7.8706
4.4652	7.894
4.4423	7.9245
4.4196	7.9455
4.3971	7.9707
4.3748	7.9826
4.3528	7.9919
4.331	7.999
4.3094	8.0129
4.288	8.0068
4.2668	8.0329
4.2458	8.0488
4.2251	8.0674
4.2045	8.0901
4.1841	8.0976
4.164	8.091
4.144	8.1057
4.1242	8.1169
4.1046	8.1308
4.0852	8.145
4.066	8.1474
4.047	8.1648
4.0281	8.1535
4.0094	8.1604
3.9909	8.164
3.9725	8.1633
3.9544	8.1472
3.9363	8.1413
3.9185	8.1245
3.9008	8.1133
3.8833	8.1028
3.8659	8.0698
3.8487	8.0556
3.8316	8.0295
3.8147	8.011
3.7979	7.9863
3.7813	7.9663
3.7648	7.9509
3.7485	7.9265
3.7323	7.9004
3.7162	7.8686
3.7003	7.8464
3.6845	7.8096
3.6689	7.7954
3.6534	7.769
3.638	7.7424
3.6227	7.7085
3.6076	7.6733
3.5926	7.6462
3.5777	7.6001
3.563	7.5461
3.5484	7.5068
3.5338	7.4599
3.5195	7.3723
3.5052	7.2678
3.491	7.2434
3.477	7.2114
3.463	7.1792
3.4492	7.1203
3.4355	7.0234
3.4219	6.9101
3.4084	6.8933
3.395	6.9099
3.3817	6.8772
3.3685	6.8567
3.3554	6.8359
3.3425	6.7903
3.3296	6.7495
3.3168	6.6914
3.3041	6.6472
3.2915	6.5972
3.279	6.5395
3.2666	6.4792
3.2543	6.4153
3.2421	6.3591
3.23	6.3039
3.218	6.2463
3.206	6.1809
3.1942	6.1294
3.1824	6.072
3.1707	6.0129
3.1591	5.9597
3.1476	5.9184
3.1362	5.8672
3.1249	5.8303
3.1136	5.7893
3.1024	5.749
3.0913	5.7092
3.0803	5.6863
3.0694	5.6716
3.0585	5.6543
3.0477	5.6326
3.037	5.6203
3.0264	5.5889
3.0158	5.5823
3.0053	5.5466
2.9949	5.5271
2.9845	5.508
2.9743	5.4878
2.9641	5.4604
2.9539	5.4614
2.9439	5.4656
2.9339	5.4548
2.9239	5.4673
2.9141	5.468
2.9043	5.487
2.8946	5.4934
2.8849	5.5181
2.8753	5.532
2.8658	5.5737
2.8563	5.6077
2.8469	5.6528
2.8375	5.7246
2.8282	5.7715
2.819	5.8662
2.8098	5.9294
2.8007	6.0217
2.7917	6.1103
2.7827	6.2231
2.7738	6.3467
2.7649	6.4775
2.7561	6.6357
2.7473	6.8254
2.7386	7.0007
2.7299	7.1831
2.7213	7.3459
2.7128	7.5591
2.7043	7.7595
2.6959	7.915
2.6875	8.0617
2.6791	8.1433
2.6709	8.2036
2.6626	8.2566
2.6545	8.2954
2.6463	8.3047
2.6382	8.2866
2.6302	8.2688
2.6222	8.2873
2.6143	8.2888
2.6064	8.2366
2.5986	8.2607
2.5908	8.258
2.583	8.2412
2.5753	8.2263
2.5677	8.1943
2.5601	8.2046
2.5525	8.1914
2.545	8.185
2.5375	8.1448
2.5301	8.1343
2.5227	8.133
2.5154	8.1396
2.5081	8.1015
2.5008	8.0837
2.4936	8.0762
2.4864	8.0488
2.4793	8.0312
2.4722	8.0195
2.4651	7.9963
2.4581	7.9834
2.4511	7.9585
2.4442	7.9709
2.4373	7.9487
2.4305	7.9199
2.4236	7.8967
2.4169	7.8923
2.4101	7.9104
2.4034	7.8869
2.3967	7.8718
2.3901	7.8628
2.3835	7.8218
2.377	7.7973
2.3704	7.812
2.364	7.7705
2.3575	7.7617
2.3511	7.7104
2.3447	7.7649
2.3384	7.7143
2.3321	7.7187
2.3258	7.6885
2.3195	7.6616
2.3133	7.6992
2.3071	7.686
2.301	7.6279
2.2949	7.6826
2.2888	7.6435
2.2828	7.6128
2.2767	7.604
2.2708	7.5835
2.2648	7.5901
2.2589	7.5288
2.253	7.5495
2.2471	7.509
2.2413	7.5014
2.2355	7.5312
2.2297	7.5212
2.224	7.4211
2.2183	7.4868
2.2126	7.4866
2.207	7.4477
2.2013	7.4104
2.1957	7.4013
2.1902	7.3686
2.1846	7.3645
2.1791	7.3742
2.1736	7.3279
2.1682	7.3271
2.1628	7.3008
2.1574	7.2578
2.152	7.2983
2.1466	7.2763
2.1413	7.2558
2.136	7.2444
2.1308	7.2763
2.1255	7.2085
2.1203	7.2446
2.1151	7.1904
2.11	7.1684
2.1048	7.2004
2.0997	7.206
2.0946	7.1299
2.0895	7.126
2.0845	7.1477
2.0795	7.0947
