Name: Phlogopite KMg3Si3Al010(F,OH)2
Type: Mineral
Class: Silicates
Subclass: Phyllosilicates (Sheet Silicates); (Mica Group)
Particle Size: Fine (0 - 74  Micrometers)
Sample No.: phlogop.1
Owner: JHU
Wavelength Range: IR
Origin: Burgess, Ontario, Canada via the Smithsonian (sample no.
Description: The hand sample consisted of rectangular sheets
Measurement: Bidirectional reflectance
X Units: Wavelength (micrometers)
Y Units: Reflectance (percent)
wavelength	value
25.0442	4.1572
24.3388	4.2412
23.6719	4.4009
23.0407	4.5871
22.4422	5.0176
21.8741	5.7873
21.334	6.354
20.8199	6.3088
20.33	5.9272
19.8627	6.1218
19.4163	6.0649
18.9896	6.0068
18.5812	6.2529
18.19	6.1999
17.815	5.3562
17.4551	3.53
17.1094	2.1724
16.7772	1.9746
16.4576	1.9263
16.15	1.9316
15.8537	1.897
15.568	1.9736
15.2925	1.9612
15.0265	1.9165
14.7697	1.9888
14.5214	1.9795
14.2814	2.0625
14.0492	2.1377
13.8244	2.1523
13.6067	2.1245
13.3957	2.4021
13.1912	2.7297
12.9929	2.9062
12.8004	3.4797
12.6135	3.7385
12.432	3.5017
12.2557	3.4485
12.0843	4.2788
11.9176	5.1543
11.7555	5.1748
11.5977	5.2143
11.444	5.0864
11.2944	4.7136
11.1487	4.0198
11.0067	3.5312
10.8682	3.4045
10.7332	3.3996
10.6015	3.2927
10.473	3.1201
10.3476	3.2026
10.2251	3.251
10.1056	3.4585
9.98873	4.28
9.87458	5.5727
9.763	6.0537
9.65392	5.4597
9.54724	5.001
9.44291	4.7898
9.34082	4.9036
9.24091	5.2073
9.14312	5.3906
9.04739	5.603
8.95363	5.417
8.8618	4.9834
8.77183	4.3459
8.68368	3.4621
8.59727	2.5767
8.51257	2.0771
8.42951	2.3122
8.34807	2.9895
8.26819	3.6829
8.18981	4.3039
8.11292	4.854
8.03745	5.3232
7.96337	5.7363
7.89064	6.0764
7.81924	6.3979
7.74911	6.6528
7.68023	6.9148
7.61256	7.1789
7.54608	7.4653
7.48074	7.6943
7.41653	7.8918
7.35341	7.9966
7.29136	8.2038
7.23034	8.6003
7.17033	8.9658
7.11132	9.2585
7.05327	9.5073
6.99616	9.8242
6.93996	10.1086
6.88467	10.3059
6.83024	10.4963
6.77667	10.7363
6.72393	10.9074
6.67201	10.957
6.62089	10.9638
6.57054	10.8886
6.52095	10.7844
6.4721	10.5256
6.42398	10.1784
6.37657	9.8584
6.32986	9.5217
6.28382	9.1977
6.23845	8.9126
6.19373	8.6572
6.14965	8.4731
6.10619	8.4053
6.06334	8.4917
6.02109	8.6108
5.97942	8.7798
5.93832	8.9172
5.89778	9.0827
5.8578	9.1921
5.81835	9.2639
5.77943	9.4126
5.74103	9.552
5.70314	9.6611
5.66574	9.7842
5.62883	9.9392
5.5924	10.0666
5.55644	10.1477
5.52093	10.2295
5.48588	10.3249
5.45127	10.4895
5.41709	10.7395
5.38334	11.0661
5.35	11.4148
5.31708	11.781
5.28456	12.0317
5.25243	12.1237
5.2207	12.1716
5.18934	12.2004
5.15836	12.2114
5.12775	12.2112
5.09749	12.1814
5.0676	12.1682
5.03805	12.1821
5.00884	12.2231
4.97998	12.2695
4.95144	12.3071
4.92322	12.2983
4.89533	12.3125
4.86775	12.3801
4.84048	12.4658
4.81351	12.591
4.78684	12.7158
4.76047	12.8825
4.73439	13.0503
4.70859	13.1994
4.68306	13.3308
4.65782	13.4863
4.63284	13.6589
4.60814	13.822
4.58369	13.9721
4.5595	14.0783
4.53557	14.1543
4.51188	14.2004
4.48845	14.2358
4.46525	14.2517
4.44229	14.2436
4.41957	14.2761
4.39708	14.2802
4.37481	14.278
4.35277	14.268
4.33096	14.2666
4.30935	14.2617
4.28797	14.2617
4.26679	14.2443
4.24583	14.2614
4.22506	14.2507
4.2045	14.2605
4.18414	14.2505
4.16398	14.237
4.14401	14.2231
4.12423	14.2126
4.10464	14.2131
4.08523	14.2185
4.066	14.2009
4.04696	14.195
4.02809	14.186
4.0094	14.1779
3.99088	14.1618
3.97253	14.1618
3.95435	14.1589
3.93634	14.1609
3.91848	14.1718
3.90079	14.1662
3.88326	14.1665
3.86589	14.1352
3.84867	14.1328
3.8316	14.1189
3.81468	14.1091
3.79791	14.0896
3.78129	14.0737
3.76482	14.0593
3.74848	14.038
3.73229	14.0276
3.71624	13.9951
3.70032	13.9646
3.68454	13.9394
3.6689	13.9067
3.65338	13.8891
3.638	13.8623
3.62275	13.8405
3.60762	13.8215
3.59262	13.7939
3.57775	13.7492
3.56299	13.7131
3.54836	13.6435
3.53385	13.5693
3.51945	13.3967
3.50517	13.0883
3.49101	13.1059
3.47696	13.1455
3.46303	13.1298
3.4492	13.0317
3.43549	12.862
3.42188	12.5564
3.40838	12.4995
3.39499	12.7116
3.38171	12.7439
3.36852	12.7915
3.35544	12.9111
3.34246	12.9624
3.32958	12.9775
3.3168	12.9153
3.30411	12.863
3.29153	12.7715
3.27903	12.6975
3.26664	12.6018
3.25433	12.5085
3.24212	12.4409
3.23	12.3498
3.21797	12.2824
3.20603	12.2417
3.19418	12.229
3.18241	12.2036
3.17074	12.1374
3.15914	12.0681
3.14763	11.9973
3.13621	11.8935
3.12487	11.8193
3.11361	11.7329
3.10243	11.6557
3.09133	11.6233
3.0803	11.6023
3.06936	11.5732
3.0585	11.5146
3.04771	11.4797
3.037	11.4499
3.02636	11.4096
3.0158	11.3603
3.00531	11.3237
2.99489	11.3008
2.98454	11.2702
2.97427	11.2134
2.96407	11.1924
2.95393	11.167
2.94387	11.164
2.93387	11.1679
2.92394	11.1572
2.91408	11.1504
2.90429	11.1421
2.89456	11.1692
2.88489	11.1689
2.87529	11.185
2.86576	11.1941
2.85628	11.2192
2.84687	11.2329
2.83752	11.2529
2.82823	11.2539
2.81901	11.2651
2.80984	11.2727
2.80073	11.2739
2.79168	11.2231
2.78269	11.1355
2.77376	11.0981
2.76488	10.9082
2.75606	10.5505
2.7473	10.0561
2.73859	9.251
2.72994	8.7627
2.72134	8.8222
2.7128	9.0102
2.70431	7.5415
2.69587	6.5195
2.68748	7.831
2.67915	12.039
2.67087	13.5048
2.66264	13.8471
2.65446	13.8447
2.64633	13.7353
2.63825	13.684
2.63021	13.7158
2.62223	13.8261
2.6143	13.8447
2.60641	13.823
2.59857	13.8498
2.59078	13.8484
2.58304	13.7829
2.57534	13.7414
2.56768	13.7434
2.56008	13.707
2.55251	13.7441
2.54499	13.7998
2.53752	13.842
2.53009	13.8125
2.5227	13.8032
2.51536	13.7683
2.50806	13.7453
2.5008	13.7036
2.49358	13.7173
2.4864	13.7173
2.47927	13.7158
2.47218	13.6806
2.46512	13.6125
2.45811	13.5429
2.45114	13.4611
2.4442	13.3925
2.43731	13.396
2.43045	13.4485
2.42363	13.4863
2.41685	13.4868
2.41011	13.4533
2.40341	13.3432
2.39674	13.2776
2.39011	13.091
2.38352	12.8559
2.37696	12.882
2.37044	13.0666
2.36395	13.2236
2.35751	13.2783
2.35109	13.3017
2.34471	13.218
2.33836	12.9985
2.33205	12.6831
2.32578	12.4804
2.31953	12.6057
2.31332	12.7746
2.30714	12.9941
2.301	13.2082
2.29489	13.372
2.28881	13.4729
2.28276	13.5957
2.27675	13.716
2.27076	13.7776
2.26481	13.7717
2.25889	13.757
2.253	13.6125
2.24714	13.5048
2.24131	13.5871
2.23551	13.8095
2.22974	13.8867
2.224	13.9272
2.21829	13.9868
2.21261	13.9863
2.20696	13.9565
2.20134	13.9292
2.19574	13.9785
2.19018	13.9629
2.18464	13.9384
2.17913	13.9414
2.17365	13.9399
2.16819	13.9062
2.16277	13.9223
2.15737	13.8657
2.15199	13.8911
2.14665	13.8169
2.14133	13.8037
2.13603	13.8466
2.13077	13.8515
2.12552	13.7837
2.12031	13.7797
2.11512	13.7656
2.10995	13.8066
2.10481	13.7812
2.0997	13.7793
2.09461	13.7597
2.08954	13.7558
2.0845	13.7861
2.07948	13.7246
