Name: Magnetite Fe+2Fe2+3O4
Type: Mineral
Class: Oxides
Subclass: (Spinel Group)
Particle Size: Coarse  (75-250 micrometers)
Sample No.: magnet.1
Owner: JHU
Wavelength Range: IR
Origin: Santa Barbara, Minas Gerais, Brazil via the Smithsonian
Description: The sample was composed of two large (3 cm x 3 cm x 2
Measurement: Bidirectional reflectance
X Units: Wavelength (micrometers)
Y Units: Reflectance (percent)
wavelength	value
25.0442	12.6562
24.3388	12.9023
23.6719	12.6047
23.0407	12.2407
22.4422	12.1255
21.8741	11.9743
21.334	11.8156
20.8199	11.8315
20.33	11.7868
19.8627	11.6758
19.4163	11.6323
18.9896	11.7238
18.5812	12.2002
18.19	13.3764
17.815	14.8405
17.4551	14.1555
17.1094	12.7668
16.7772	11.8474
16.4576	11.4184
16.15	11.063
15.8537	10.8523
15.568	10.6848
15.2925	10.5163
15.0265	10.3225
14.7697	10.1972
14.5214	10.1074
14.2814	10.0249
14.0492	9.8952
13.8244	9.8279
13.6067	9.7419
13.3957	9.7182
13.1912	9.6369
12.9929	9.584
12.8004	9.5532
12.6135	9.5115
12.432	9.499
12.2557	9.4775
12.0843	9.428
11.9176	9.3825
11.7555	9.3452
11.5977	9.3423
11.444	9.3178
11.2944	9.3442
11.1487	9.3205
11.0067	9.2907
10.8682	9.258
10.7332	9.2507
10.6015	9.2636
10.473	9.2585
10.3476	9.2094
10.2251	9.1621
10.1056	9.136
9.98873	9.1277
9.87458	9.1106
9.763	9.0854
9.65392	9.0862
9.54724	9.0996
9.44291	9.0735
9.34082	9.081
9.24091	9.0473
9.14312	9.0261
9.04739	9.0232
8.95363	8.9885
8.8618	8.945
8.77183	8.8857
8.68368	8.8296
8.59727	8.7912
8.51257	8.7793
8.42951	8.758
8.34807	8.7429
8.26819	8.6968
8.18981	8.6953
8.11292	8.6841
8.03745	8.6548
7.96337	8.6142
7.89064	8.5718
7.81924	8.5556
7.74911	8.5398
7.68023	8.5154
7.61256	8.4931
7.54608	8.4631
7.48074	8.4414
7.41653	8.4328
7.35341	8.4206
7.29136	8.4077
7.23034	8.3789
7.17033	8.3496
7.11132	8.3464
7.05327	8.333
6.99616	8.3259
6.93996	8.3181
6.88467	8.3042
6.83024	8.2849
6.77667	8.2829
6.72393	8.2678
6.67201	8.2485
6.62089	8.2297
6.57054	8.2009
6.52095	8.2199
6.4721	8.1943
6.42398	8.1582
6.37657	8.1596
6.32986	8.1562
6.28382	8.1506
6.23845	8.1321
6.19373	8.0989
6.14965	8.0925
6.10619	8.0635
6.06334	8.0493
6.02109	8.053
5.97942	8.0288
5.93832	7.988
5.89778	7.9817
5.8578	8.0144
5.81835	7.9934
5.77943	8.0085
5.74103	7.997
5.70314	7.9851
5.66574	7.9736
5.62883	7.9629
5.5924	7.9565
5.55644	7.9338
5.52093	7.9299
5.48588	7.927
5.45127	7.9143
5.41709	7.8879
5.38334	7.8818
5.35	7.8508
5.31708	7.8479
5.28456	7.831
5.25243	7.8281
5.2207	7.8091
5.18934	7.802
5.15836	7.7959
5.12775	7.7783
5.09749	7.7695
5.0676	7.7551
5.03805	7.7348
5.00884	7.7378
4.97998	7.7292
4.95144	7.716
4.92322	7.6953
4.89533	7.7024
4.86775	7.7014
4.84048	7.6894
4.81351	7.6755
4.78684	7.6645
4.76047	7.6462
4.73439	7.6438
4.70859	7.6264
4.68306	7.6223
4.65782	7.6042
4.63284	7.591
4.60814	7.5964
4.58369	7.5786
4.5595	7.5686
4.53557	7.5544
4.51188	7.5359
4.48845	7.5249
4.46525	7.5381
4.44229	7.5149
4.41957	7.508
4.39708	7.5097
4.37481	7.5058
4.35277	7.5024
4.33096	7.5
4.30935	7.4883
4.28797	7.4765
4.26679	7.4758
4.24583	7.4741
4.22506	7.4582
4.2045	7.4602
4.18414	7.4436
4.16398	7.438
4.14401	7.4324
4.12423	7.4331
4.10464	7.4275
4.08523	7.4084
4.066	7.4023
4.04696	7.3857
4.02809	7.3821
4.0094	7.3723
3.99088	7.364
3.97253	7.3613
3.95435	7.3567
3.93634	7.3413
3.91848	7.3454
3.90079	7.3347
3.88326	7.324
3.86589	7.3237
3.84867	7.3254
3.8316	7.3169
3.81468	7.3086
3.79791	7.2978
3.78129	7.289
3.76482	7.2942
3.74848	7.2795
3.73229	7.2727
3.71624	7.2727
3.70032	7.249
3.68454	7.248
3.6689	7.2324
3.65338	7.2319
3.638	7.2138
3.62275	7.2173
3.60762	7.2055
3.59262	7.1968
3.57775	7.1911
3.56299	7.1872
3.54836	7.1792
3.53385	7.1687
3.51945	7.1667
3.50517	7.1599
3.49101	7.1601
3.47696	7.1545
3.46303	7.1411
3.4492	7.1413
3.43549	7.1313
3.42188	7.1411
3.40838	7.1533
3.39499	7.1252
3.38171	7.1372
3.36852	7.1189
3.35544	7.1045
3.34246	7.0971
3.32958	7.0935
3.3168	7.0798
3.30411	7.0859
3.29153	7.074
3.27903	7.0583
3.26664	7.0386
3.25433	7.0405
3.24212	7.0442
3.23	7.0315
3.21797	7.0139
3.20603	7.0088
3.19418	7.0027
3.18241	7.0032
3.17074	7.0051
3.15914	6.9905
3.14763	6.9748
3.13621	6.9792
3.12487	6.9668
3.11361	6.9555
3.10243	6.9638
3.09133	6.9499
3.0803	6.9485
3.06936	6.9485
3.0585	6.9287
3.04771	6.9333
3.037	6.918
3.02636	6.9094
3.0158	6.8913
3.00531	6.884
2.99489	6.9023
2.98454	6.8821
2.97427	6.8721
2.96407	6.8669
2.95393	6.854
2.94387	6.8518
2.93387	6.8376
2.92394	6.831
2.91408	6.7949
2.90429	6.8159
2.89456	6.8078
2.88489	6.7898
2.87529	6.7981
2.86576	6.7803
2.85628	6.7678
2.84687	6.7744
2.83752	6.7383
2.82823	6.7436
2.81901	6.7265
2.80984	6.7361
2.80073	6.7124
2.79168	6.7182
2.78269	6.6838
2.77376	6.7014
2.76488	6.6733
2.75606	6.6699
2.7473	6.688
2.73859	6.657
2.72994	6.643
2.72134	6.6516
2.7128	6.6313
2.70431	6.6338
2.69587	6.5962
2.68748	6.5796
2.67915	6.5913
2.67087	6.5691
2.66264	6.5879
2.65446	6.5532
2.64633	6.5493
2.63825	6.5461
2.63021	6.5019
2.62223	6.4956
2.6143	6.4822
2.60641	6.4848
2.59857	6.4712
2.59078	6.4665
2.58304	6.4455
2.57534	6.4492
2.56768	6.4385
2.56008	6.4204
2.55251	6.4236
2.54499	6.4048
2.53752	6.4109
2.53009	6.4043
2.5227	6.4018
2.51536	6.3628
2.50806	6.3486
2.5008	6.3345
2.49358	6.3389
2.4864	6.3384
2.47927	6.2851
2.47218	6.31
2.46512	6.2602
2.45811	6.2871
2.45114	6.2554
2.4442	6.2627
2.43731	6.2466
2.43045	6.2222
2.42363	6.2324
2.41685	6.2373
2.41011	6.2182
2.40341	6.2097
2.39674	6.1626
2.39011	6.1816
2.38352	6.1601
2.37696	6.1448
2.37044	6.1548
2.36395	6.1514
2.35751	6.1272
2.35109	6.1284
2.34471	6.0691
2.33836	6.0835
2.33205	6.06
2.32578	6.0488
2.31953	6.0395
2.31332	6.0154
2.30714	6.0483
2.301	6.0107
2.29489	5.9975
2.28881	6.0039
2.28276	6.0063
2.27675	5.9758
2.27076	5.968
2.26481	5.9619
2.25889	5.9609
2.253	5.9424
2.24714	5.9475
2.24131	5.9643
2.23551	5.9468
2.22974	5.927
2.224	5.9165
2.21829	5.8916
2.21261	5.9155
2.20696	5.8994
2.20134	5.8965
2.19574	5.8574
2.19018	5.8694
2.18464	5.8262
2.17913	5.8413
2.17365	5.8262
2.16819	5.8459
2.16277	5.8789
2.15737	5.8139
2.15199	5.8166
2.14665	5.8257
2.14133	5.8262
2.13603	5.8042
2.13077	5.8286
2.12552	5.8042
2.12031	5.8069
2.11512	5.7795
2.10995	5.8198
2.10481	5.802
2.0997	5.7873
2.09461	5.7883
2.08954	5.8059
2.0845	5.7698
2.07948	5.7925
