Name: Hornblende Ca2(Fe+2,Mg)4Al(Si7Al)O22(OH,F)2
Type: Mineral
Class: Silicates
Subclass: Inosilicates (Amphibole Group)
Particle Size: fine (0-75 micrometers)
Sample No.: hornblen.3
Owner: JHU
Wavelength Range: IR
Origin: Calumet Island, Ottowa River, Canada via the Smithsaonian
Description: Sample was a cluster of several large, deep green
Measurement: Bidirectional reflectance
X Units: Wavelength (micrometers)
Y Units: Reflectance (percent)
wavelength	value
25.044	1.4844
24.339	1.9043
23.672	1.8457
23.041	1.9404
22.442	1.9375
21.874	2.1113
21.334	2.02
20.82	1.9758
20.33	1.9756
19.863	1.8989
19.416	1.9878
18.99	2.1318
18.581	2.1719
18.19	2.1909
17.815	2.6885
17.455	2.6309
17.109	2.1475
16.777	1.5696
16.458	1.4116
16.15	1.5889
15.854	1.51
15.568	1.0571
15.292	1.0886
15.027	1.0395
14.77	1.2703
14.521	1.2107
14.281	1.4175
14.049	1.7537
13.824	1.6956
13.607	1.7537
13.396	1.5586
13.191	1.324
12.993	1.55
12.8	2.1821
12.614	2.8035
12.432	3.2725
12.256	3.3442
12.084	3.3032
11.918	3.0559
11.755	2.6868
11.598	2.572
11.444	2.4204
11.294	2.0767
11.149	1.7595
11.007	1.4514
10.868	1.2529
10.733	1.2107
10.602	1.489
10.473	1.8003
10.348	1.9197
10.225	2.0571
10.106	2.1645
9.9887	1.9939
9.8746	1.8008
9.763	1.4026
9.6539	1.4744
9.5472	1.4951
9.4429	1.5571
9.3408	1.7178
9.2409	2.0222
9.1431	1.9834
9.0474	1.7629
8.9536	1.7519
8.8618	1.937
8.7718	2.7554
8.6837	3.5427
8.5973	3.4385
8.5126	2.6455
8.4295	1.9016
8.3481	1.4658
8.2682	1.4014
8.1898	1.5874
8.1129	1.9214
8.0374	2.4119
7.9634	2.9829
7.8906	3.5276
7.8192	3.9499
7.7491	4.3181
7.6802	4.7851
7.6126	5.1885
7.5461	5.3791
7.4807	5.438
7.4165	5.5791
7.3534	5.823
7.2914	6.2141
7.2303	6.5852
7.1703	6.8789
7.1113	7.1653
7.0533	7.417
6.9962	7.6628
6.94	7.9216
6.8847	8.0569
6.8302	8.2202
6.7767	8.4531
6.7239	8.6367
6.672	8.8772
6.6209	9.2114
6.5705	9.5366
6.5209	9.5259
6.4721	9.2951
6.424	8.989
6.3766	8.6015
6.3299	8.0144
6.2838	7.4848
6.2385	7.1452
6.1937	7.0852
6.1496	7.2602
6.1062	7.5444
6.0633	7.9648
6.0211	8.3525
5.9794	8.0715
5.9383	7.6599
5.8978	7.7878
5.8578	8.2407
5.8184	8.5285
5.7794	8.7322
5.741	9.0163
5.7031	9.0993
5.6657	9.0603
5.6288	9.1643
5.5924	9.4262
5.5564	9.6833
5.5209	9.8725
5.4859	9.7165
5.4513	9.7326
5.4171	10.05
5.3833	10.05
5.35	9.8323
5.3171	9.9365
5.2846	10.277
5.2524	10.394
5.2207	10.98
5.1893	10.905
5.1584	10.358
5.1277	10.195
5.0975	10.498
5.0676	10.682
5.038	10.929
5.0088	11.287
4.98	11.588
4.9514	11.839
4.9232	12.128
4.8953	12.37
4.8678	12.478
4.8405	12.516
4.8135	12.491
4.7868	12.808
4.7605	13.336
4.7344	13.773
4.7086	14
4.6831	14.328
4.6578	14.69
4.6328	15.077
4.6081	15.462
4.5837	15.707
4.5595	16.003
4.5356	16.272
4.5119	16.47
4.4884	16.669
4.4652	16.829
4.4423	16.924
4.4196	17.016
4.3971	17.087
4.3748	17.145
4.3528	17.16
4.331	17.194
4.3094	17.213
4.288	17.241
4.2668	17.288
4.2458	17.303
4.2251	17.327
4.2045	17.35
4.1841	17.365
4.164	17.385
4.144	17.387
4.1242	17.404
4.1046	17.45
4.0852	17.494
4.066	17.523
4.047	17.541
4.0281	17.567
4.0094	17.574
3.9909	17.578
3.9725	17.576
3.9544	17.614
3.9363	17.664
3.9185	17.686
3.9008	17.723
3.8833	17.732
3.8659	17.743
3.8487	17.745
3.8316	17.732
3.8147	17.732
3.7979	17.71
3.7813	17.699
3.7648	17.684
3.7485	17.678
3.7323	17.673
3.7162	17.64
3.7003	17.587
3.6845	17.57
3.6689	17.542
3.6534	17.52
3.638	17.484
3.6227	17.459
3.6076	17.442
3.5926	17.405
3.5777	17.345
3.563	17.301
3.5484	17.207
3.5338	17.115
3.5195	16.975
3.5052	16.66
3.491	16.625
3.477	16.56
3.463	16.532
3.4492	16.449
3.4355	16.326
3.4219	16.023
3.4084	15.857
3.395	15.932
3.3817	15.895
3.3685	15.855
3.3554	15.708
3.3425	15.778
3.3296	16.019
3.3168	16.073
3.3041	16.11
3.2915	16.274
3.279	16.395
3.2666	16.41
3.2543	16.337
3.2421	16.256
3.23	16.156
3.218	16.077
3.206	15.946
3.1942	15.787
3.1824	15.631
3.1707	15.497
3.1591	15.514
3.1476	15.512
3.1362	15.446
3.1249	15.372
3.1136	15.273
3.1024	15.22
3.0913	15.137
3.0803	15.058
3.0694	14.996
3.0585	14.906
3.0477	14.83
3.037	14.763
3.0264	14.667
3.0158	14.546
3.0053	14.428
2.9949	14.335
2.9845	14.24
2.9743	14.133
2.9641	14.045
2.9539	13.982
2.9439	13.927
2.9339	13.877
2.9239	13.889
2.9141	13.925
2.9043	13.993
2.8946	14.053
2.8849	14.113
2.8753	14.108
2.8658	14.146
2.8563	14.182
2.8469	14.2
2.8375	14.157
2.8282	14.098
2.819	14.022
2.8098	14.007
2.8007	13.965
2.7917	13.996
2.7827	13.824
2.7738	13.108
2.7649	12.126
2.7561	10.958
2.7473	9.0967
2.7386	8.4292
2.7299	5.3071
2.7213	3.1592
2.7128	12.957
2.7043	13.837
2.6959	14.995
2.6875	16.549
2.6791	17.767
2.6709	18.345
2.6626	18.476
2.6545	18.428
2.6463	18.35
2.6382	18.314
2.6302	18.284
2.6222	18.256
2.6143	18.257
2.6064	18.202
2.5986	18.213
2.5908	18.174
2.583	18.151
2.5753	18.085
2.5677	17.961
2.5601	18.011
2.5525	18.058
2.545	18.131
2.5375	18.147
2.5301	18.101
2.5227	17.97
2.5154	17.845
2.5081	17.851
2.5008	17.826
2.4936	17.765
2.4864	17.703
2.4793	17.651
2.4722	17.675
2.4651	17.525
2.4581	17.544
2.4511	17.696
2.4442	17.677
2.4373	17.812
2.4305	17.886
2.4236	17.769
2.4169	17.61
2.4101	17.613
2.4034	17.296
2.3967	16.615
2.3901	16.197
2.3835	16.182
2.377	16.959
2.3704	17.49
2.364	17.786
2.3575	17.878
2.3511	17.942
2.3447	17.888
2.3384	17.484
2.3321	16.808
2.3258	15.907
2.3195	15.296
2.3133	15.274
2.3071	15.508
2.301	15.507
2.2949	15.743
2.2888	16.626
2.2828	16.961
2.2767	17.401
2.2708	17.732
2.2648	18.009
2.2589	18.119
2.253	18.113
2.2471	18.114
2.2413	18.217
2.2355	18.449
2.2297	18.367
2.224	18.41
2.2183	18.475
2.2126	18.438
2.207	18.423
2.2013	18.397
2.1957	18.397
2.1902	18.429
2.1846	18.38
2.1791	18.385
2.1736	18.416
2.1682	18.399
2.1628	18.447
2.1574	18.39
2.152	18.239
2.1466	18.297
2.1413	18.307
2.136	18.317
2.1308	18.116
2.1255	18.228
2.1203	18.219
2.1151	18.135
2.11	18.167
2.1048	18.355
2.0997	18.293
2.0946	18.392
2.0895	18.434
2.0845	18.384
2.0795	18.362
