Name: Biotite K(Mg,Fe+2)3(Al,Fe+3)Si3O10(OH,F)2
Type: Mineral
Class: Silicates
Subclass: Phyllosilicates (Mica Group)
Particle Size: Coarse  (74-250 Micrometers)
Sample No.: biotite.1
Owner: JHU
Wavelength Range: IR
Origin: Source Smithsonian NMNH 78303 Sample from Wakefield,
Description: Sample consisted of four large (5 cm x 5 cm x 3 cm)
Measurement: Bidirectional reflectance
X Units: Wavelength (micrometers)
Y Units: Reflectance (percent)
wavelength	value
25.0442	2.6318
24.3388	3.0278
23.6719	3.3384
23.0407	3.4985
22.4422	4.2446
21.8741	5.0439
21.334	5.6089
20.8199	5.4614
20.33	5.3784
19.8627	5.5383
19.4163	5.5041
18.9896	5.4109
18.5812	4.9248
18.19	3.9407
17.815	2.4966
17.4551	1.3843
17.1094	0.9065
16.7772	0.8628
16.4576	0.9236
16.15	0.8997
15.8537	0.8967
15.568	0.8813
15.2925	0.9058
15.0265	0.946
14.7697	0.9749
14.5214	0.96
14.2814	1.0212
14.0492	0.9321
13.8244	0.9814
13.6067	1.0347
13.3957	1.1399
13.1912	1.2607
12.9929	1.3704
12.8004	1.5874
12.6135	1.7063
12.432	1.7893
12.2557	2.0713
12.0843	2.6938
11.9176	2.8909
11.7555	2.6811
11.5977	2.5708
11.444	2.5005
11.2944	2.4028
11.1487	2.2471
11.0067	2.1472
10.8682	2.1846
10.7332	2.3308
10.6015	2.5351
10.473	2.7654
10.3476	3.1052
10.2251	3.168
10.1056	3.5674
9.98873	4.6577
9.87458	5.9136
9.763	5.563
9.65392	4.7873
9.54724	4.4131
9.44291	4.237
9.34082	4.2439
9.24091	4.2305
9.14312	3.9438
9.04739	3.5918
8.95363	3.0632
8.8618	2.3232
8.77183	1.5395
8.68368	0.99
8.59727	0.7798
8.51257	0.8779
8.42951	1.1182
8.34807	1.4414
8.26819	1.7703
8.18981	2.0767
8.11292	2.3694
8.03745	2.6177
7.96337	2.8401
7.89064	3.0356
7.81924	3.2366
7.74911	3.312
7.68023	3.4158
7.61256	3.6672
7.54608	3.9538
7.48074	4.1367
7.41653	4.2969
7.35341	4.4563
7.29136	4.5491
7.23034	4.854
7.17033	5.0757
7.11132	5.3015
7.05327	5.5068
6.99616	5.7156
6.93996	5.8845
6.88467	6.0456
6.83024	6.1987
6.77667	6.3174
6.72393	6.438
6.67201	6.5403
6.62089	6.6074
6.57054	6.6272
6.52095	6.6013
6.4721	6.5
6.42398	6.322
6.37657	6.1377
6.32986	5.9172
6.28382	5.7563
6.23845	5.5942
6.19373	5.5002
6.14965	5.4543
6.10619	5.4944
6.06334	5.5959
6.02109	5.7363
5.97942	5.8557
5.93832	5.9155
5.89778	5.8799
5.8578	5.823
5.81835	5.9433
5.77943	6.1196
5.74103	6.2776
5.70314	6.4023
5.66574	6.5786
5.62883	6.7422
5.5924	6.7488
5.55644	6.81
5.52093	7.1262
5.48588	7.3691
5.45127	7.6406
5.41709	7.9431
5.38334	8.2756
5.35	8.5898
5.31708	8.8728
5.28456	9.0454
5.25243	9.1369
5.2207	9.185
5.18934	9.2058
5.15836	9.2129
5.12775	9.2029
5.09749	9.164
5.0676	9.2168
5.03805	9.2468
5.00884	9.282
4.97998	9.334
4.95144	9.3471
4.92322	9.3359
4.89533	9.3716
4.86775	9.4355
4.84048	9.5381
4.81351	9.6667
4.78684	9.8232
4.76047	9.9934
4.73439	10.1457
4.70859	10.2263
4.68306	10.3235
4.65782	10.4614
4.63284	10.6655
4.60814	10.832
4.58369	10.9797
4.5595	11.0771
4.53557	11.1401
4.51188	11.1845
4.48845	11.2116
4.46525	11.2592
4.44229	11.2898
4.41957	11.3171
4.39708	11.3225
4.37481	11.3408
4.35277	11.3476
4.33096	11.3542
4.30935	11.3547
4.28797	11.3657
4.26679	11.3896
4.24583	11.4023
4.22506	11.4162
4.2045	11.4397
4.18414	11.4504
4.16398	11.4448
4.14401	11.4519
4.12423	11.4348
4.10464	11.4453
4.08523	11.4389
4.066	11.4177
4.04696	11.363
4.02809	11.2441
4.0094	11.1596
3.99088	11.0727
3.97253	11.0747
3.95435	11.1362
3.93634	11.2451
3.91848	11.2824
3.90079	11.3134
3.88326	11.3198
3.86589	11.3381
3.84867	11.3518
3.8316	11.4109
3.81468	11.4985
3.79791	11.6133
3.78129	11.6894
3.76482	11.7146
3.74848	11.7121
3.73229	11.707
3.71624	11.7031
3.70032	11.6989
3.68454	11.6963
3.6689	11.6723
3.65338	11.6504
3.638	11.6491
3.62275	11.6384
3.60762	11.6164
3.59262	11.5913
3.57775	11.5337
3.56299	11.4973
3.54836	11.4389
3.53385	11.3308
3.51945	11.1174
3.50517	10.9226
3.49101	10.8972
3.47696	10.8611
3.46303	10.9411
3.4492	10.9135
3.43549	10.8303
3.42188	10.7558
3.40838	10.7004
3.39499	10.7588
3.38171	10.7287
3.36852	10.7021
3.35544	10.6684
3.34246	10.7368
3.32958	10.9436
3.3168	10.9897
3.30411	10.9719
3.29153	10.9489
3.27903	10.9111
3.26664	10.8452
3.25433	10.7876
3.24212	10.7292
3.23	10.7011
3.21797	10.6733
3.20603	10.6794
3.19418	10.6809
3.18241	10.676
3.17074	10.6621
3.15914	10.6128
3.14763	10.5476
3.13621	10.4975
3.12487	10.446
3.11361	10.3821
3.10243	10.3657
3.09133	10.334
3.0803	10.3264
3.06936	10.3073
3.0585	10.2776
3.04771	10.2383
3.037	10.2219
3.02636	10.1836
3.0158	10.1416
3.00531	10.0744
2.99489	10.063
2.98454	10.0283
2.97427	9.9712
2.96407	9.9404
2.95393	9.8916
2.94387	9.855
2.93387	9.8291
2.92394	9.792
2.91408	9.7461
2.90429	9.7231
2.89456	9.6875
2.88489	9.6404
2.87529	9.5769
2.86576	9.5058
2.85628	9.4411
2.84687	9.3698
2.83752	9.2639
2.82823	9.073
2.81901	8.8044
2.80984	8.5215
2.80073	8.3991
2.79168	8.1286
2.78269	7.8428
2.77376	7.9021
2.76488	7.6448
2.75606	7.3821
2.7473	7.1748
2.73859	6.5801
2.72994	6.1733
2.72134	6.0454
2.7128	5.8782
2.70431	5.4675
2.69587	5.4494
2.68748	6.8894
2.67915	10.3291
2.67087	11.2776
2.66264	11.4704
2.65446	11.4692
2.64633	11.4214
2.63825	11.4319
2.63021	11.4699
2.62223	11.5246
2.6143	11.5476
2.60641	11.5158
2.59857	11.5549
2.59078	11.5752
2.58304	11.5305
2.57534	11.5232
2.56768	11.5173
2.56008	11.5009
2.55251	11.5014
2.54499	11.53
2.53752	11.5178
2.53009	11.4926
2.5227	11.4851
2.51536	11.4612
2.50806	11.4538
2.5008	11.455
2.49358	11.4465
2.4864	11.4563
2.47927	11.4189
2.47218	11.4045
2.46512	11.3398
2.45811	11.3203
2.45114	11.2934
2.4442	11.2419
2.43731	11.2409
2.43045	11.2573
2.42363	11.2651
2.41685	11.2114
2.41011	11.1425
2.40341	11.0686
2.39674	10.9448
2.39011	10.8525
2.38352	10.8154
2.37696	10.8418
2.37044	10.9663
2.36395	11.0195
2.35751	11.0144
2.35109	10.9721
2.34471	10.8318
2.33836	10.6819
2.33205	10.5361
2.32578	10.5278
2.31953	10.6484
2.31332	10.8159
2.30714	10.987
2.301	11.1347
2.29489	11.2148
2.28881	11.3462
2.28276	11.4062
2.27675	11.4375
2.27076	11.4614
2.26481	11.4419
2.25889	11.4135
2.253	11.3237
2.24714	11.2876
2.24131	11.3867
2.23551	11.5605
2.22974	11.6118
2.224	11.6074
2.21829	11.6557
2.21261	11.6191
2.20696	11.6562
2.20134	11.6242
2.19574	11.6169
2.19018	11.6325
2.18464	11.6333
2.17913	11.6069
2.17365	11.6103
2.16819	11.6108
2.16277	11.5842
2.15737	11.5925
2.15199	11.5483
2.14665	11.4743
2.14133	11.5312
2.13603	11.5009
2.13077	11.4956
2.12552	11.5136
2.12031	11.4697
2.11512	11.4958
2.10995	11.4546
2.10481	11.446
2.0997	11.4272
2.09461	11.3735
2.08954	11.4299
2.0845	11.4709
2.07948	11.4336
