Name: Dolomite CaMg(CO3)2
Type: Mineral
Class: Carbonates
Particle Size: Fine  (0-74  Micrometers)
Sample No.: dolomite.1
Owner: JHU
Wavelength Range: IR
Origin: Sample from Oberdorf, Styria, Austria via the Smithsonian
Description: The sample was a single white crystal, 3 cm x 2 cm x 2
Measurement: Bidirectional reflectance
X Units: Wavelength (micrometers)
Y Units: Reflectance (percent)
wavelength	value
25.0442	3.9551
24.3388	4.0742
23.6719	4.0107
23.0407	4.4455
22.4422	4.2666
21.8741	3.4375
21.334	2.0542
20.8199	0.9697
20.33	0.7915
19.8627	0.9336
19.4163	1.2515
18.9896	1.6616
18.5812	2.2629
18.19	2.8315
17.815	3.4175
17.4551	4.1157
17.1094	4.7534
16.7772	5.2202
16.4576	6.2563
16.15	7.1623
15.8537	7.3428
15.568	6.8694
15.2925	6.8252
15.0265	7.0784
14.7697	7.6907
14.5214	7.9411
14.2814	8.0388
14.0492	6.8054
13.8244	3.1704
13.6067	1.9006
13.3957	7.4875
13.1912	10.8152
12.9929	12.4297
12.8004	12.7776
12.6135	13.2155
12.432	13.4265
12.2557	13.435
12.0843	13.1027
11.9176	12.4624
11.7555	7.8906
11.5977	7.6245
11.444	2.9446
11.2944	2.9448
11.1487	9.6621
11.0067	10.9658
10.8682	11.1836
10.7332	11.3332
10.6015	11.3288
10.473	11.4179
10.3476	11.2231
10.2251	10.8169
10.1056	10.3747
9.98873	10.1494
9.87458	9.4345
9.763	8.9963
9.65392	9.0971
9.54724	9.3725
9.44291	10.031
9.34082	9.3774
9.24091	9.425
9.14312	9.7199
9.04739	9.0949
8.95363	8.9438
8.8618	8.5522
8.77183	8.5639
8.68368	8.0659
8.59727	8.1191
8.51257	7.2344
8.42951	6.2807
8.34807	6.4089
8.26819	7.0952
8.18981	6.4079
8.11292	5.2742
8.03745	5.6252
7.96337	5.7141
7.89064	5.7441
7.81924	5.6428
7.74911	4.8826
7.68023	4.4763
7.61256	4.6094
7.54608	4.2939
7.48074	3.6706
7.41653	3.5215
7.35341	3.1482
7.29136	2.71
7.23034	2.3655
7.17033	2.168
7.11132	2.041
7.05327	2.2773
6.99616	2.6548
6.93996	2.5898
6.88467	2.6108
6.83024	2.6916
6.77667	2.771
6.72393	2.9216
6.67201	3.1172
6.62089	3.51
6.57054	3.9075
6.52095	4.415
6.4721	5.1296
6.42398	6.0051
6.37657	7.2519
6.32986	7.3574
6.28382	5.9394
6.23845	4.8891
6.19373	4.9119
6.14965	4.9265
6.10619	4.1684
6.06334	3.9441
6.02109	4.0071
5.97942	4.3806
5.93832	4.7126
5.89778	5.1919
5.8578	5.5344
5.81835	5.834
5.77943	6.0307
5.74103	6.1836
5.70314	6.5867
5.66574	6.5893
5.62883	6.1843
5.5924	5.6157
5.55644	4.4336
5.52093	2.8252
5.48588	2.5803
5.45127	5.4858
5.41709	8.9262
5.38334	10.8571
5.35	11.9348
5.31708	12.5439
5.28456	13.0715
5.25243	13.9157
5.2207	14.6858
5.18934	15.2483
5.15836	15.8071
5.12775	16.165
5.09749	16.4016
5.0676	15.3486
5.03805	16.6503
5.00884	17.3027
4.97998	17.4736
4.95144	17.5754
4.92322	17.6796
4.89533	17.788
4.86775	17.8398
4.84048	17.8574
4.81351	17.8444
4.78684	17.801
4.76047	17.7338
4.73439	17.5966
4.70859	17.1882
4.68306	16.3332
4.65782	14.3532
4.63284	13.5332
4.60814	13.4624
4.58369	14.3869
4.5595	15.2973
4.53557	15.8601
4.51188	16.299
4.48845	17.1984
4.46525	16.8811
4.44229	16.0988
4.41957	16.3337
4.39708	17.0752
4.37481	17.6489
4.35277	17.9704
4.33096	17.0473
4.30935	16.6342
4.28797	16.5158
4.26679	16.6765
4.24583	16.8999
4.22506	16.9223
4.2045	17.1345
4.18414	17.2094
4.16398	16.8884
4.14401	16.4458
4.12423	16.4194
4.10464	16.1848
4.08523	15.7695
4.066	14.9699
4.04696	13.8925
4.02809	12.2927
4.0094	9.8891
3.99088	7.0398
3.97253	4.0603
3.95435	3.2424
3.93634	3.4634
3.91848	3.7978
3.90079	5.0491
3.88326	5.7158
3.86589	6.1972
3.84867	8.4114
3.8316	9.1211
3.81468	7.1658
3.79791	6.4228
3.78129	8.3264
3.76482	10.5073
3.74848	13.2785
3.73229	15.4567
3.71624	16.1604
3.70032	16.6425
3.68454	17.1496
3.6689	17.4323
3.65338	17.5676
3.638	17.6752
3.62275	17.6814
3.60762	17.6572
3.59262	17.6018
3.57775	17.4692
3.56299	17.0188
3.54836	15.3628
3.53385	15.7287
3.51945	14.3989
3.50517	11.4741
3.49101	7.8974
3.47696	6.2673
3.46303	5.4009
3.4492	4.9639
3.43549	5.9072
3.42188	7.3179
3.40838	7.7407
3.39499	8.1377
3.38171	8.675
3.36852	9.1367
3.35544	8.0442
3.34246	7.2883
3.32958	7.2593
3.3168	6.7898
3.30411	6.3235
3.29153	11.2519
3.27903	14.2016
3.26664	15.2326
3.25433	15.8908
3.24212	16.3837
3.23	16.7556
3.21797	17.0288
3.20603	17.2531
3.19418	17.4184
3.18241	17.5585
3.17074	17.6826
3.15914	17.7121
3.14763	17.4585
3.13621	17.1982
3.12487	17.2346
3.11361	17.2822
3.10243	17.3203
3.09133	17.1684
3.0803	17.0644
3.06936	17.2954
3.0585	17.5734
3.04771	17.7182
3.037	17.7915
3.02636	18.0739
3.0158	18.2998
3.00531	18.4677
2.99489	18.5688
2.98454	18.6098
2.97427	18.707
2.96407	18.809
2.95393	18.9033
2.94387	18.9348
2.93387	18.979
2.92394	19.0676
2.91408	19.1198
2.90429	19.205
2.89456	19.2983
2.88489	19.3842
2.87529	19.405
2.86576	19.4909
2.85628	19.5336
2.84687	19.5815
2.83752	19.5903
2.82823	19.6184
2.81901	19.581
2.80984	19.4855
2.80073	19.2749
2.79168	18.9184
2.78269	18.6142
2.77376	18.1264
2.76488	17.9169
2.75606	18.3481
2.7473	18.852
2.73859	19.2641
2.72994	19.5751
2.72134	18.7194
2.7128	19.9633
2.70431	20.2665
2.69587	20.2763
2.68748	20.2824
2.67915	20.4948
2.67087	20.7094
2.66264	20.8749
2.65446	20.9704
2.64633	21.0351
2.63825	21.0615
2.63021	21.0664
2.62223	21.1144
2.6143	21.124
2.60641	21.1044
2.59857	21.1123
2.59078	21.1437
2.58304	21.1027
2.57534	21.0751
2.56768	20.967
2.56008	20.7929
2.55251	20.6391
2.54499	20.2729
2.53752	19.4953
2.53009	18.7163
2.5227	18.1782
2.51536	17.9414
2.50806	18.0283
2.5008	18.2729
2.49358	18.4804
2.4864	18.7824
2.47927	19.0705
2.47218	19.166
2.46512	19.1271
2.45811	19.2675
2.45114	19.4963
2.4442	19.7333
2.43731	20.0266
2.43045	20.2148
2.42363	20.413
2.41685	20.6379
2.41011	20.7714
2.40341	20.7521
2.39674	20.757
2.39011	20.7814
2.38352	20.8674
2.37696	20.9106
2.37044	20.9755
2.36395	21.0029
2.35751	20.9201
2.35109	20.7766
2.34471	20.4184
2.33836	19.9809
2.33205	19.5214
2.32578	19.2314
2.31953	19.2016
2.31332	19.1533
2.30714	19.311
2.301	19.4462
2.29489	19.5751
2.28881	19.644
2.28276	19.7983
2.27675	19.8071
2.27076	19.8486
2.26481	19.9999
2.25889	20.1279
2.253	20.2426
2.24714	20.3735
2.24131	20.5493
2.23551	20.6782
2.22974	20.6787
2.224	20.7031
2.21829	20.7119
2.21261	20.8173
2.20696	20.8403
2.20134	20.8149
2.19574	20.8735
2.19018	20.9257
2.18464	20.9457
2.17913	20.9912
2.17365	20.9101
2.16819	21.0043
2.16277	21.0439
2.15737	20.9882
2.15199	20.9345
2.14665	20.8427
2.14133	20.8847
2.13603	20.9033
2.13077	20.8847
2.12552	20.9619
2.12031	20.9833
2.11512	21.0644
2.10995	21.0097
2.10481	21.0668
2.0997	21.0771
2.09461	21.1879
2.08954	21.2695
2.0845	21.2602
2.07948	21.1767
