Name: Pyrite FeS2
Type: Mineral
Class: Sulfides
Particle Size: Coarse  (75 - 250  Micrometers)
Sample No.: pyrite.1
Owner: JHU
Wavelength Range: IR
Origin: Ambassaguas, Logrono, Castilla la Vieja, Spain via the
Description: Large cubic (3cm/side) piece with yellow metallic luster,
Measurement: Bidirectional reflectance
X Units: Wavelength (micrometers)
Y Units: Reflectance (percent)
wavelength	value
25.0442	10.1262
24.3388	10.509
23.6719	8.4341
23.0407	4.2778
22.4422	1.7383
21.8741	2.5247
21.334	2.9119
20.8199	3.1589
20.33	3.3069
19.8627	3.3879
19.4163	3.4385
18.9896	3.4873
18.5812	3.5017
18.19	3.488
17.815	3.522
17.4551	3.5798
17.1094	3.7944
16.7772	4.0076
16.4576	3.8552
16.15	3.6816
15.8537	3.6467
15.568	3.522
15.2925	3.4421
15.0265	3.6245
14.7697	3.7834
14.5214	3.676
14.2814	3.582
14.0492	3.4966
13.8244	3.4575
13.6067	3.4394
13.3957	3.4419
13.1912	3.4282
12.9929	3.3701
12.8004	3.3086
12.6135	3.2112
12.432	3.1985
12.2557	3.2309
12.0843	3.3162
11.9176	3.4036
11.7555	3.4809
11.5977	3.446
11.444	3.428
11.2944	3.3821
11.1487	3.3101
11.0067	3.2549
10.8682	3.2104
10.7332	3.1794
10.6015	3.1523
10.473	3.125
10.3476	3.1287
10.2251	3.1457
10.1056	3.1934
9.98873	3.3037
9.87458	3.5493
9.763	3.832
9.65392	4.3694
9.54724	4.3398
9.44291	4.0867
9.34082	4.062
9.24091	4.2134
9.14312	4.2749
9.04739	4.249
8.95363	4.1811
8.8618	4.1853
8.77183	4.1736
8.68368	4.1135
8.59727	4.0703
8.51257	4.1243
8.42951	4.1665
8.34807	4.2554
8.26819	4.4648
8.18981	4.605
8.11292	4.6926
8.03745	4.7068
7.96337	4.7361
7.89064	4.7712
7.81924	4.7807
7.74911	4.7566
7.68023	4.7217
7.61256	4.6865
7.54608	4.6628
7.48074	4.6438
7.41653	4.6196
7.35341	4.5776
7.29136	4.5317
7.23034	4.4924
7.17033	4.4778
7.11132	4.48
7.05327	4.4702
6.99616	4.459
6.93996	4.4238
6.88467	4.3564
6.83024	4.2724
6.77667	4.1897
6.72393	4.1245
6.67201	4.1125
6.62089	4.1562
6.57054	4.1848
6.52095	4.1982
6.4721	4.177
6.42398	4.1213
6.37657	4.0535
6.32986	3.9529
6.28382	3.8025
6.23845	3.6055
6.19373	3.457
6.14965	3.3909
6.10619	3.3157
6.06334	3.3232
6.02109	3.4504
5.97942	3.5996
5.93832	3.6955
5.89778	3.7754
5.8578	3.8396
5.81835	3.8884
5.77943	3.9465
5.74103	3.9939
5.70314	4.0405
5.66574	4.0911
5.62883	4.1472
5.5924	4.199
5.55644	4.2444
5.52093	4.2937
5.48588	4.3386
5.45127	4.3784
5.41709	4.4138
5.38334	4.4502
5.35	4.4807
5.31708	4.5161
5.28456	4.541
5.25243	4.5598
5.2207	4.5723
5.18934	4.5842
5.15836	4.5876
5.12775	4.5881
5.09749	4.5852
5.0676	4.5757
5.03805	4.5615
5.00884	4.5493
4.97998	4.5268
4.95144	4.4973
4.92322	4.4661
4.89533	4.4524
4.86775	4.4587
4.84048	4.4546
4.81351	4.4387
4.78684	4.4397
4.76047	4.4443
4.73439	4.4385
4.70859	4.425
4.68306	4.4206
4.65782	4.4131
4.63284	4.3996
4.60814	4.3865
4.58369	4.3796
4.5595	4.3852
4.53557	4.3923
4.51188	4.4033
4.48845	4.4133
4.46525	4.4248
4.44229	4.4348
4.41957	4.4421
4.39708	4.4536
4.37481	4.4575
4.35277	4.457
4.33096	4.4599
4.30935	4.4592
4.28797	4.4587
4.26679	4.458
4.24583	4.4575
4.22506	4.4568
4.2045	4.456
4.18414	4.4538
4.16398	4.4521
4.14401	4.4529
4.12423	4.4529
4.10464	4.4578
4.08523	4.4619
4.066	4.4651
4.04696	4.4597
4.02809	4.4521
4.0094	4.4412
3.99088	4.4258
3.97253	4.4153
3.95435	4.4009
3.93634	4.3884
3.91848	4.375
3.90079	4.3603
3.88326	4.3413
3.86589	4.3223
3.84867	4.2995
3.8316	4.2761
3.81468	4.2495
3.79791	4.2212
3.78129	4.1907
3.76482	4.1565
3.74848	4.1211
3.73229	4.0847
3.71624	4.0483
3.70032	4.0088
3.68454	3.9739
3.6689	3.9355
3.65338	3.9001
3.638	3.8638
3.62275	3.8262
3.60762	3.7895
3.59262	3.7527
3.57775	3.7173
3.56299	3.6787
3.54836	3.6387
3.53385	3.6011
3.51945	3.564
3.50517	3.5244
3.49101	3.4819
3.47696	3.4399
3.46303	3.3977
3.4492	3.3538
3.43549	3.3054
3.42188	3.26
3.40838	3.2158
3.39499	3.167
3.38171	3.1167
3.36852	3.0681
3.35544	3.0212
3.34246	2.9756
3.32958	2.9248
3.3168	2.8743
3.30411	2.8284
3.29153	2.7842
3.27903	2.738
3.26664	2.6929
3.25433	2.6509
3.24212	2.6143
3.23	2.5784
3.21797	2.541
3.20603	2.5063
3.19418	2.4722
3.18241	2.4402
3.17074	2.4084
3.15914	2.3794
3.14763	2.3494
3.13621	2.3181
3.12487	2.2886
3.11361	2.2595
3.10243	2.2361
3.09133	2.2126
3.0803	2.1985
3.06936	2.1904
3.0585	2.1868
3.04771	2.186
3.037	2.187
3.02636	2.1868
3.0158	2.1887
3.00531	2.1963
2.99489	2.2068
2.98454	2.2222
2.97427	2.2414
2.96407	2.2685
2.95393	2.3037
2.94387	2.3418
2.93387	2.3877
2.92394	2.4397
2.91408	2.5051
2.90429	2.5823
2.89456	2.6748
2.88489	2.7856
2.87529	2.9133
2.86576	3.0483
2.85628	3.1877
2.84687	3.3323
2.83752	3.4831
2.82823	3.645
2.81901	3.8049
2.80984	3.9675
2.80073	4.1199
2.79168	4.26
2.78269	4.3833
2.77376	4.4946
2.76488	4.5859
2.75606	4.6589
2.7473	4.7407
2.73859	4.8049
2.72994	4.8655
2.72134	4.9021
2.7128	4.9411
2.70431	4.9678
2.69587	4.9773
2.68748	4.988
2.67915	4.9861
2.67087	4.9773
2.66264	4.9858
2.65446	4.9822
2.64633	4.9778
2.63825	4.9707
2.63021	4.9548
2.62223	4.9536
2.6143	4.9514
2.60641	4.9424
2.59857	4.948
2.59078	4.9487
2.58304	4.9451
2.57534	4.9521
2.56768	4.9529
2.56008	4.9556
2.55251	4.9614
2.54499	4.9658
2.53752	4.9704
2.53009	4.9709
2.5227	4.9741
2.51536	4.9756
2.50806	4.9773
2.5008	4.9773
2.49358	4.9797
2.4864	4.9814
2.47927	4.9802
2.47218	4.9787
2.46512	4.9717
2.45811	4.968
2.45114	4.9624
2.4442	4.9556
2.43731	4.9487
2.43045	4.947
2.42363	4.9385
2.41685	4.9304
2.41011	4.9236
2.40341	4.9194
2.39674	4.917
2.39011	4.914
2.38352	4.9111
2.37696	4.9114
2.37044	4.9097
2.36395	4.9077
2.35751	4.9057
2.35109	4.905
2.34471	4.9018
2.33836	4.8987
2.33205	4.8948
2.32578	4.895
2.31953	4.8916
2.31332	4.8862
2.30714	4.883
2.301	4.8777
2.29489	4.8708
2.28881	4.8647
2.28276	4.8603
2.27675	4.8528
2.27076	4.8506
2.26481	4.8408
2.25889	4.831
2.253	4.8259
2.24714	4.8186
2.24131	4.8108
2.23551	4.8022
2.22974	4.7952
2.224	4.7886
2.21829	4.7795
2.21261	4.7703
2.20696	4.7624
2.20134	4.7571
2.19574	4.7473
2.19018	4.7434
2.18464	4.7395
2.17913	4.7297
2.17365	4.7275
2.16819	4.7202
2.16277	4.7197
2.15737	4.7124
2.15199	4.7041
2.14665	4.6985
2.14133	4.6924
2.13603	4.6843
2.13077	4.6765
2.12552	4.6702
2.12031	4.6665
2.11512	4.6575
2.10995	4.6506
2.10481	4.6389
2.0997	4.6357
2.09461	4.6247
2.08954	4.6186
2.0845	4.6103
2.07948	4.6072
