Name: Topaz Al2SiO4(F,OH)2
Type: Mineral
Class: Silicates
Subclass: Nesosilicates (Isolated tetrahedra)
Particle Size: Solid (cleavage face)
Sample No.: topaz.1
Owner: JHU
Wavelength Range: IR
Origin: Rhondonia, Brazil via Don Hoover, USGS
Description: The sample was a 1 cm x 1 cm x 1 cm fragment of a
Measurement: Bidirectional reflectance
X Units: Wavelength (micrometers)
Y Units: Reflectance (percent)
wavelength	value
25.0442	32.1288
24.3388	24.5265
23.6719	30.9135
23.0407	39.6879
22.4422	52.8439
21.8741	72.8135
21.334	56.8634
20.8199	46.9882
20.33	48.8583
19.8627	41.872
19.4163	37.0102
18.9896	38.0609
18.5812	39.1605
18.19	40.1593
17.815	18.4106
17.4551	15.3562
17.1094	22.1926
16.7772	23.9313
16.4576	44.359
16.15	63.4886
15.8537	69.0816
15.568	68.6551
15.2925	66.2786
15.0265	59.0909
14.7697	39.6286
14.5214	16.8105
14.2814	6.5012
14.0492	5.9953
13.8244	4.9302
13.6067	7.2947
13.3957	9.0036
13.1912	10.8506
12.9929	12.1753
12.8004	13.2104
12.6135	15.2597
12.432	17.4528
12.2557	20.2944
12.0843	23.9265
11.9176	30.5588
11.7555	38.8344
11.5977	50.9923
11.444	62.3919
11.2944	67.2674
11.1487	66.5094
11.0067	63.1998
10.8682	61.8485
10.7332	60.4496
10.6015	69.7222
10.473	72.4676
10.3476	70.7989
10.2251	59.4591
10.1056	43.7365
9.98873	51.4601
9.87458	55.3097
9.763	52.692
9.65392	52.3099
9.54724	50.1317
9.44291	44.4918
9.34082	37.2165
9.24091	28.9369
9.14312	20.0544
9.04739	11.7739
8.95363	5.1724
8.8618	1.1953
8.77183	0.8296
8.68368	2.654
8.59727	8.1489
8.51257	7.6098
8.42951	1.353
8.34807	0.8474
8.26819	1.2861
8.18981	1.7366
8.11292	2.168
8.03745	2.5449
7.96337	2.8694
7.89064	3.1623
7.81924	3.4319
7.74911	3.6887
7.68023	3.9253
7.61256	4.147
7.54608	4.3591
7.48074	4.5495
7.41653	4.748
7.35341	4.9402
7.29136	5.1203
7.23034	5.2876
7.17033	5.4333
7.11132	5.6052
7.05327	5.7285
6.99616	5.8918
6.93996	6.0242
6.88467	6.1301
6.83024	6.2417
6.77667	6.3284
6.72393	6.435
6.67201	6.5051
6.62089	6.5784
6.57054	6.6721
6.52095	6.7964
6.4721	6.8647
6.42398	6.9026
6.37657	7.0791
6.32986	7.167
6.28382	7.2937
6.23845	7.3857
6.19373	7.4309
6.14965	7.5342
6.10619	7.5867
6.06334	7.5976
6.02109	7.7761
5.97942	7.8296
5.93832	7.8489
5.89778	7.8713
5.8578	7.9783
5.81835	7.9756
5.77943	8.0339
5.74103	8.0796
5.70314	8.1228
5.66574	8.1782
5.62883	8.2131
5.5924	8.2483
5.55644	8.2646
5.52093	8.2942
5.48588	8.3161
5.45127	8.3611
5.41709	8.3916
5.38334	8.4663
5.35	8.4956
5.31708	8.5818
5.28456	8.6421
5.25243	8.719
5.2207	8.7793
5.18934	8.8501
5.15836	8.9084
5.12775	8.9736
5.09749	9.0383
5.0676	9.1001
5.03805	9.1533
5.00884	9.1889
4.97998	9.1816
4.95144	9.1811
4.92322	9.3166
4.89533	9.6684
4.86775	10.1379
4.84048	10.5556
4.81351	10.9052
4.78684	11.1587
4.76047	11.3303
4.73439	11.4665
4.70859	11.561
4.68306	11.6328
4.65782	11.6609
4.63284	11.6706
4.60814	11.7563
4.58369	11.8801
4.5595	11.9914
4.53557	12.1689
4.51188	12.3574
4.48845	12.4743
4.46525	12.5424
4.44229	12.5813
4.41957	12.5796
4.39708	12.4878
4.37481	12.1577
4.35277	11.3105
4.33096	10.2883
4.30935	10.0024
4.28797	10.7058
4.26679	11.7458
4.24583	12.5056
4.22506	12.8659
4.2045	13.0398
4.18414	13.1455
4.16398	13.2304
4.14401	13.3066
4.12423	13.3774
4.10464	13.4509
4.08523	13.51
4.066	13.5102
4.04696	13.3757
4.02809	13.0649
4.0094	13.268
3.99088	13.5053
3.97253	13.5676
3.95435	13.6196
3.93634	13.6606
3.91848	13.6486
3.90079	13.5766
3.88326	13.4553
3.86589	13.341
3.84867	13.3095
3.8316	13.3523
3.81468	13.4201
3.79791	13.5046
3.78129	13.5957
3.76482	13.6745
3.74848	13.7309
3.73229	13.7544
3.71624	13.6379
3.70032	13.8176
3.68454	13.8171
3.6689	13.801
3.65338	13.7837
3.638	13.789
3.62275	13.8095
3.60762	13.8305
3.59262	13.8525
3.57775	13.8808
3.56299	13.9052
3.54836	13.9284
3.53385	13.9582
3.51945	13.9148
3.50517	13.7617
3.49101	13.9304
3.47696	14.0007
3.46303	14.0393
3.4492	14.028
3.43549	13.9226
3.42188	13.791
3.40838	13.9187
3.39499	14.0276
3.38171	14.0344
3.36852	14.1345
3.35544	14.2143
3.34246	14.2368
3.32958	14.2463
3.3168	14.2771
3.30411	14.3003
3.29153	14.3203
3.27903	14.3288
3.26664	14.2885
3.25433	14.2348
3.24212	14.1904
3.23	14.2109
3.21797	14.2158
3.20603	14.1784
3.19418	14.1518
3.18241	14.0849
3.17074	13.9785
3.15914	13.9621
3.14763	13.9748
3.13621	13.9575
3.12487	13.945
3.11361	13.8144
3.10243	13.6496
3.09133	13.4306
3.0803	13.2402
3.06936	13.0796
3.0585	12.7807
3.04771	12.3884
3.037	12.018
3.02636	11.8528
3.0158	11.5468
3.00531	11.239
2.99489	11.1084
2.98454	10.9375
2.97427	10.9284
2.96407	10.9504
2.95393	11.1606
2.94387	11.3896
2.93387	11.5258
2.92394	11.5295
2.91408	11.3938
2.90429	11.2297
2.89456	11.1718
2.88489	11.2268
2.87529	11.1826
2.86576	11.3374
2.85628	11.7722
2.84687	12.0605
2.83752	12.1279
2.82823	11.9211
2.81901	11.8388
2.80984	11.7243
2.80073	11.4743
2.79168	11.2639
2.78269	11.1582
2.77376	11.0171
2.76488	10.7949
2.75606	10.6081
2.7473	10.3928
2.73859	9.5971
2.72994	10.2895
2.72134	10.5976
2.7128	11.1235
2.70431	11.7654
2.69587	12.2197
2.68748	12.5053
2.67915	12.581
2.67087	12.5652
2.66264	12.6587
2.65446	12.6709
2.64633	12.5466
2.63825	12.3405
2.63021	11.8488
2.62223	11.3952
2.6143	11.3791
2.60641	11.2551
2.59857	11.2304
2.59078	11.406
2.58304	11.5481
2.57534	11.3279
2.56768	11.0117
2.56008	10.7588
2.55251	10.6025
2.54499	10.5805
2.53752	10.5925
2.53009	10.6028
2.5227	10.6655
2.51536	10.7861
2.50806	10.9941
2.5008	11.0532
2.49358	11.4094
2.4864	11.7846
2.47927	12.1391
2.47218	12.1508
2.46512	12.2737
2.45811	12.5959
2.45114	12.9792
2.4442	13.2429
2.43731	13.321
2.43045	13.188
2.42363	13.0644
2.41685	13.0073
2.41011	13.2107
2.40341	13.4467
2.39674	13.4936
2.39011	13.5883
2.38352	13.6457
2.37696	13.6262
2.37044	13.7815
2.36395	14.0036
2.35751	14.0998
2.35109	14.0424
2.34471	13.9406
2.33836	14.0507
2.33205	14.1682
2.32578	14.2622
2.31953	14.4314
2.31332	14.4802
2.30714	14.5019
2.301	14.6062
2.29489	14.8308
2.28881	15.0356
2.28276	15.1157
2.27675	15.0937
2.27076	14.906
2.26481	14.3984
2.25889	14.3986
2.253	15.1696
2.24714	15.3671
2.24131	15.4228
2.23551	15.4358
2.22974	15.3945
2.224	15.217
2.21829	14.8659
2.21261	14.6692
2.20696	14.7197
2.20134	14.7492
2.19574	14.8945
2.19018	14.9851
2.18464	14.8813
2.17913	14.6943
2.17365	14.5236
2.16819	14.5197
2.16277	14.3984
2.15737	14.0017
2.15199	13.8471
2.14665	14.0935
2.14133	14.2002
2.13603	14.5366
2.13077	14.976
2.12552	15.1723
2.12031	15.1799
2.11512	15.0776
2.10995	14.8554
2.10481	14.4875
2.0997	13.8464
2.09461	12.5754
2.08954	10.9236
2.0845	10.3303
2.07948	10.3994
