Name: Rhodonite (Mn+2,Fe+2,Mg,Ca)SiO3
Type: Mineral
Class: Silicates
Subclass: Inosilicates (chain silicates); (Pyroxenoid Group)
Particle Size: Solid (crystal mass)
Sample No.: rhodon.1
Owner: JHU
Wavelength Range: IR
Origin: Franklin, New Jersey via the Smithsonian (sample no. NMNH
Description: The hand sample was composed of two fragments, each
Measurement: Bidirectional reflectance
X Units: Wavelength (micrometers)
Y Units: Reflectance (percent)
wavelength	value
25.0442	9.3408
24.3388	11.6963
23.6719	11.4804
23.0407	13.6289
22.4422	17.144
21.8741	18.9228
21.334	19.2348
20.8199	18.2578
20.33	18.2578
19.8627	19.4038
19.4163	22.3964
18.9896	20.0134
18.5812	13.2666
18.19	8.7966
17.815	13.1526
17.4551	15.2588
17.1094	15.1076
16.7772	9.5097
16.4576	5.0224
16.15	4.9399
15.8537	5.5298
15.568	6.2204
15.2925	6.3237
15.0265	7.0713
14.7697	6.6843
14.5214	7.218
14.2814	7.6448
14.0492	8.4419
13.8244	8.1091
13.6067	6.5442
13.3957	7.3259
13.1912	7.8174
12.9929	8.1948
12.8004	8.508
12.6135	8.8374
12.432	9.2234
12.2557	9.5747
12.0843	10.0683
11.9176	10.5588
11.7555	11.1318
11.5977	12.0551
11.444	13.3398
11.2944	14.4248
11.1487	18.8137
11.0067	20.5825
10.8682	19.6098
10.7332	17.5468
10.6015	14.3713
10.473	21.5954
10.3476	19.3388
10.2251	18.1906
10.1056	18.1726
9.98873	17.3801
9.87458	21.4565
9.763	23.5253
9.65392	22.0085
9.54724	19.2141
9.44291	21.3691
9.34082	21.312
9.24091	21.3937
9.14312	22.3747
9.04739	24.1515
8.95363	21.6337
8.8618	21.518
8.77183	15.801
8.68368	10.1801
8.59727	4.8833
8.51257	2.2043
8.42951	2.6431
8.34807	3.1189
8.26819	3.5146
8.18981	3.8464
8.11292	4.103
8.03745	4.3142
7.96337	4.522
7.89064	4.6714
7.81924	4.8069
7.74911	4.9397
7.68023	5.0554
7.61256	5.1865
7.54608	5.2944
7.48074	5.3674
7.41653	5.4682
7.35341	5.5674
7.29136	5.6228
7.23034	5.7165
7.17033	5.771
7.11132	5.8386
7.05327	5.8701
6.99616	5.9619
6.93996	6.0249
6.88467	6.073
6.83024	6.1084
6.77667	6.1872
6.72393	6.2156
6.67201	6.2937
6.62089	6.3933
6.57054	6.3284
6.52095	6.3721
6.4721	6.4389
6.42398	6.3823
6.37657	6.4695
6.32986	6.5007
6.28382	6.5071
6.23845	6.5249
6.19373	6.5227
6.14965	6.5547
6.10619	6.5608
6.06334	6.623
6.02109	6.5784
5.97942	6.6238
5.93832	6.5007
5.89778	6.5561
5.8578	6.6689
5.81835	6.6758
5.77943	6.7295
5.74103	6.758
5.70314	6.7724
5.66574	6.7915
5.62883	6.8125
5.5924	6.8154
5.55644	6.8457
5.52093	6.9009
5.48588	6.9587
5.45127	7.0317
5.41709	7.05
5.38334	7.0339
5.35	7.0112
5.31708	7.0356
5.28456	7.0447
5.25243	7.0373
5.2207	7.0339
5.18934	7.0688
5.15836	7.0776
5.12775	7.0986
5.09749	7.1015
5.0676	7.1235
5.03805	7.1413
5.00884	7.1636
4.97998	7.1907
4.95144	7.2248
4.92322	7.2512
4.89533	7.2756
4.86775	7.3061
4.84048	7.3161
4.81351	7.3554
4.78684	7.3764
4.76047	7.4297
4.73439	7.4883
4.70859	7.5547
4.68306	7.6304
4.65782	7.6992
4.63284	7.7886
4.60814	7.8503
4.58369	7.9299
4.5595	8.0051
4.53557	8.0998
4.51188	8.1787
4.48845	8.196
4.46525	8.2287
4.44229	8.2478
4.41957	8.2617
4.39708	8.2563
4.37481	8.2644
4.35277	8.3032
4.33096	8.3745
4.30935	8.4934
4.28797	8.647
4.26679	8.6445
4.24583	8.7026
4.22506	8.7803
4.2045	8.4004
4.18414	8.2392
4.16398	8.2434
4.14401	8.2414
4.12423	8.2336
4.10464	8.2441
4.08523	8.2346
4.066	8.25
4.04696	8.2571
4.02809	8.2749
4.0094	8.342
3.99088	8.383
3.97253	8.4226
3.95435	8.4636
3.93634	8.4919
3.91848	8.5053
3.90079	8.5407
3.88326	8.5525
3.86589	8.5503
3.84867	8.5429
3.8316	8.5437
3.81468	8.5605
3.79791	8.5574
3.78129	8.5339
3.76482	8.519
3.74848	8.4929
3.73229	8.4785
3.71624	8.4411
3.70032	8.4326
3.68454	8.3918
3.6689	8.3713
3.65338	8.3474
3.638	8.323
3.62275	8.2934
3.60762	8.2756
3.59262	8.24
3.57775	8.2336
3.56299	8.2241
3.54836	8.1865
3.53385	8.1731
3.51945	8.1511
3.50517	8.1084
3.49101	8.0986
3.47696	8.0913
3.46303	8.0735
3.4492	8.0657
3.43549	8.0217
3.42188	8.0036
3.40838	8.0014
3.39499	7.9868
3.38171	7.9807
3.36852	7.9792
3.35544	7.9739
3.34246	7.9604
3.32958	7.9338
3.3168	7.9223
3.30411	7.896
3.29153	7.8821
3.27903	7.8293
3.26664	7.8025
3.25433	7.7658
3.24212	7.717
3.23	7.6977
3.21797	7.6347
3.20603	7.5989
3.19418	7.5439
3.18241	7.4804
3.17074	7.4272
3.15914	7.375
3.14763	7.3362
3.13621	7.3049
3.12487	7.2502
3.11361	7.2302
3.10243	7.187
3.09133	7.1809
3.0803	7.1492
3.06936	7.1448
3.0585	7.0976
3.04771	7.095
3.037	7.0798
3.02636	7.0586
3.0158	7.0574
3.00531	7.041
2.99489	7.0068
2.98454	6.9995
2.97427	6.978
2.96407	6.9385
2.95393	6.9277
2.94387	6.9067
2.93387	6.904
2.92394	6.8955
2.91408	6.8667
2.90429	6.8774
2.89456	6.8696
2.88489	6.8872
2.87529	6.8642
2.86576	6.9009
2.85628	6.9353
2.84687	6.9565
2.83752	7.0217
2.82823	7.029
2.81901	7.0744
2.80984	7.0903
2.80073	7.1211
2.79168	7.1887
2.78269	7.2712
2.77376	7.1926
2.76488	7.2221
2.75606	7.1968
2.7473	6.8823
2.73859	7.5976
2.72994	7.7973
2.72134	8.0522
2.7128	8.104
2.70431	8.2143
2.69587	8.2783
2.68748	8.3442
2.67915	8.3596
2.67087	8.3557
2.66264	8.3364
2.65446	8.3135
2.64633	8.3345
2.63825	8.2851
2.63021	8.4023
2.62223	8.3533
2.6143	8.3545
2.60641	8.375
2.59857	8.2561
2.59078	8.3052
2.58304	8.3423
2.57534	8.3501
2.56768	8.2734
2.56008	8.2915
2.55251	8.2368
2.54499	8.281
2.53752	8.271
2.53009	8.2529
2.5227	8.2451
2.51536	8.2309
2.50806	8.2358
2.5008	8.2055
2.49358	8.2348
2.4864	8.2383
2.47927	8.2026
2.47218	8.2158
2.46512	8.2202
2.45811	8.2124
2.45114	8.208
2.4442	8.2182
2.43731	8.1748
2.43045	8.2344
2.42363	8.1811
2.41685	8.1899
2.41011	8.2197
2.40341	8.1936
2.39674	8.1675
2.39011	8.1545
2.38352	8.1789
2.37696	8.165
2.37044	8.1658
2.36395	8.1797
2.35751	8.1755
2.35109	8.1679
2.34471	8.1872
2.33836	8.2075
2.33205	8.1867
2.32578	8.2329
2.31953	8.1994
2.31332	8.2138
2.30714	8.2402
2.301	8.1972
2.29489	8.1938
2.28881	8.2397
2.28276	8.2236
2.27675	8.2295
2.27076	8.2617
2.26481	8.2651
2.25889	8.1933
2.253	8.2212
2.24714	8.2627
2.24131	8.2661
2.23551	8.2534
2.22974	8.2092
2.224	8.2563
2.21829	8.2461
2.21261	8.2903
2.20696	8.2822
2.20134	8.2949
2.19574	8.2553
2.19018	8.2734
2.18464	8.3791
2.17913	8.3039
2.17365	8.3449
2.16819	8.3701
2.16277	8.3906
2.15737	8.3222
2.15199	8.3432
2.14665	8.3821
2.14133	8.3559
2.13603	8.3869
2.13077	8.3576
2.12552	8.4062
2.12031	8.3642
2.11512	8.395
2.10995	8.4065
2.10481	8.4331
2.0997	8.4416
2.09461	8.4638
2.08954	8.4094
2.0845	8.4465
2.07948	8.3977
