Name: Hematite a-Fe2O3
Type: Mineral
Class: Oxides
Subclass: (Hematite Group)
Particle Size: Coarse  (74-250 micrometers)
Sample No.: hematite.1
Owner: JHU
Wavelength Range: IR
Origin: Frizington, Cumberland, England via the Smithsonian (sample
Description: The sample was a 2.5 cm x 2.5 cm x 1 cm sawn plate,
Measurement: Bidirectional reflectance
X Units: Wavelength (micrometers)
Y Units: Reflectance (percent)
wavelength	value
25.0442	6.4726
24.3388	6.4521
23.6719	8.1933
23.0407	10.5884
22.4422	11.4511
21.8741	11.7846
21.334	11.9753
20.8199	11.2387
20.33	8.0281
19.8627	6.5273
19.4163	9.112
18.9896	11.9341
18.5812	13.5449
18.19	14.1526
17.815	14.2942
17.4551	14.0698
17.1094	13.6035
16.7772	13.333
16.4576	13.0141
16.15	12.5014
15.8537	11.7426
15.568	11.1252
15.2925	9.541
15.0265	6.3459
14.7697	3.3225
14.5214	1.5911
14.2814	1.2341
14.0492	1.365
13.8244	1.5771
13.6067	1.7612
13.3957	1.978
13.1912	2.1841
12.9929	2.3789
12.8004	2.4661
12.6135	2.5632
12.432	2.6685
12.2557	2.748
12.0843	2.7922
11.9176	2.9036
11.7555	2.918
11.5977	2.9685
11.444	3.0168
11.2944	3.0588
11.1487	3.0708
11.0067	3.0967
10.8682	3.1025
10.7332	3.1194
10.6015	3.1826
10.473	3.198
10.3476	3.2129
10.2251	3.25
10.1056	3.2844
9.98873	3.3144
9.87458	3.3025
9.763	3.3025
9.65392	3.2939
9.54724	3.2947
9.44291	3.335
9.34082	3.3411
9.24091	3.3506
9.14312	3.3923
9.04739	3.4026
8.95363	3.457
8.8618	3.4822
8.77183	3.5464
8.68368	3.5898
8.59727	3.6379
8.51257	3.7414
8.42951	3.8581
8.34807	4.0137
8.26819	4.2331
8.18981	4.5132
8.11292	4.8503
8.03745	5.1968
7.96337	5.4809
7.89064	5.6931
7.81924	5.8974
7.74911	6.1025
7.68023	6.2207
7.61256	6.2695
7.54608	6.2825
7.48074	6.2959
7.41653	6.2834
7.35341	6.2788
7.29136	6.2512
7.23034	6.1997
7.17033	6.1821
7.11132	6.1579
7.05327	6.0959
6.99616	6.0115
6.93996	5.8633
6.88467	5.6594
6.83024	5.4426
6.77667	5.2348
6.72393	5.0188
6.67201	4.8003
6.62089	4.6496
6.57054	4.5444
6.52095	4.5715
6.4721	4.6892
6.42398	4.8669
6.37657	5.1589
6.32986	5.4455
6.28382	5.6286
6.23845	5.6584
6.19373	5.5327
6.14965	5.4011
6.10619	5.414
6.06334	5.5476
6.02109	5.7785
5.97942	6.0166
5.93832	6.2331
5.89778	6.5427
5.8578	6.824
5.81835	6.9643
5.77943	7.1448
5.74103	7.2351
5.70314	7.2998
5.66574	7.353
5.62883	7.3645
5.5924	7.3767
5.55644	7.3733
5.52093	7.3845
5.48588	7.384
5.45127	7.3742
5.41709	7.342
5.38334	7.3059
5.35	7.271
5.31708	7.2356
5.28456	7.2168
5.25243	7.1792
5.2207	7.134
5.18934	7.0993
5.15836	7.0744
5.12775	7.0654
5.09749	7.0625
5.0676	7.0554
5.03805	7.0583
5.00884	7.0657
4.97998	7.0691
4.95144	7.0471
4.92322	7.03
4.89533	7.0049
4.86775	6.9729
4.84048	6.9399
4.81351	6.8984
4.78684	6.8552
4.76047	6.8386
4.73439	6.8061
4.70859	6.7829
4.68306	6.7641
4.65782	6.7571
4.63284	6.7688
4.60814	6.7651
4.58369	6.8005
4.5595	6.8398
4.53557	6.8852
4.51188	6.9565
4.48845	7.053
4.46525	7.1191
4.44229	7.1999
4.41957	7.2685
4.39708	7.3157
4.37481	7.3462
4.35277	7.3852
4.33096	7.4006
4.30935	7.4101
4.28797	7.4219
4.26679	7.3882
4.24583	7.4275
4.22506	7.4663
4.2045	7.4743
4.18414	7.4709
4.16398	7.4822
4.14401	7.4717
4.12423	7.4612
4.10464	7.4536
4.08523	7.4485
4.066	7.4338
4.04696	7.4143
4.02809	7.3794
4.0094	7.3511
3.99088	7.3154
3.97253	7.2883
3.95435	7.23
3.93634	7.1841
3.91848	7.1299
3.90079	7.0679
3.88326	7.0088
3.86589	6.9365
3.84867	6.8613
3.8316	6.7849
3.81468	6.7261
3.79791	6.6404
3.78129	6.5564
3.76482	6.4795
3.74848	6.3887
3.73229	6.3235
3.71624	6.2324
3.70032	6.1487
3.68454	6.0574
3.6689	5.9824
3.65338	5.8874
3.638	5.8208
3.62275	5.7541
3.60762	5.6897
3.59262	5.6033
3.57775	5.5381
3.56299	5.4668
3.54836	5.3857
3.53385	5.3159
3.51945	5.2507
3.50517	5.1894
3.49101	5.1318
3.47696	5.073
3.46303	5.019
3.4492	4.9731
3.43549	4.9209
3.42188	4.8581
3.40838	4.7932
3.39499	4.7534
3.38171	4.7099
3.36852	4.6662
3.35544	4.624
3.34246	4.5803
3.32958	4.5378
3.3168	4.4973
3.30411	4.4609
3.29153	4.4028
3.27903	4.3628
3.26664	4.3269
3.25433	4.2988
3.24212	4.2549
3.23	4.2263
3.21797	4.1706
3.20603	4.1426
3.19418	4.1206
3.18241	4.0884
3.17074	4.0561
3.15914	4.0159
3.14763	3.9907
3.13621	3.9673
3.12487	3.947
3.11361	3.9038
3.10243	3.876
3.09133	3.8784
3.0803	3.8345
3.06936	3.8076
3.0585	3.7978
3.04771	3.7808
3.037	3.7649
3.02636	3.7466
3.0158	3.6982
3.00531	3.6875
2.99489	3.6567
2.98454	3.6296
2.97427	3.5918
2.96407	3.5586
2.95393	3.5227
2.94387	3.5068
2.93387	3.5273
2.92394	3.5203
2.91408	3.5339
2.90429	3.5359
2.89456	3.5593
2.88489	3.6045
2.87529	3.6211
2.86576	3.6553
2.85628	3.6675
2.84687	3.7112
2.83752	3.7615
2.82823	3.833
2.81901	3.8996
2.80984	3.9853
2.80073	4.094
2.79168	4.2012
2.78269	4.3069
2.77376	4.4543
2.76488	4.6357
2.75606	4.9507
2.7473	5.3484
2.73859	5.8215
2.72994	6.3056
2.72134	6.7507
2.7128	7.0996
2.70431	7.2739
2.69587	7.5039
2.68748	7.6955
2.67915	7.8222
2.67087	8.1301
2.66264	8.3606
2.65446	8.3677
2.64633	8.4241
2.63825	8.458
2.63021	8.4487
2.62223	8.5176
2.6143	8.4743
2.60641	8.459
2.59857	8.5105
2.59078	8.5217
2.58304	8.4988
2.57534	8.5063
2.56768	8.4802
2.56008	8.4367
2.55251	8.4497
2.54499	8.4236
2.53752	8.3952
2.53009	8.3967
2.5227	8.3528
2.51536	8.3559
2.50806	8.3366
2.5008	8.344
2.49358	8.3218
2.4864	8.2969
2.47927	8.2595
2.47218	8.2085
2.46512	8.1921
2.45811	8.1855
2.45114	8.1872
2.4442	8.1323
2.43731	8.1267
2.43045	8.1116
2.42363	8.1155
2.41685	8.0681
2.41011	8.0835
2.40341	8.0412
2.39674	8.0442
2.39011	7.9844
2.38352	8.0034
2.37696	7.9985
2.37044	7.9721
2.36395	7.9346
2.35751	7.9575
2.35109	7.9109
2.34471	7.8913
2.33836	7.8196
2.33205	7.7871
2.32578	7.7807
2.31953	7.7851
2.31332	7.7114
2.30714	7.7475
2.301	7.7141
2.29489	7.7104
2.28881	7.6726
2.28276	7.7175
2.27675	7.6736
2.27076	7.643
2.26481	7.656
2.25889	7.6267
2.253	7.6052
2.24714	7.5185
2.24131	7.529
2.23551	7.5688
2.22974	7.5908
2.224	7.5332
2.21829	7.5337
2.21261	7.5249
2.20696	7.4897
2.20134	7.4534
2.19574	7.4287
2.19018	7.4385
2.18464	7.4243
2.17913	7.4211
2.17365	7.3745
2.16819	7.436
2.16277	7.4038
2.15737	7.3911
2.15199	7.3496
2.14665	7.2832
2.14133	7.2766
2.13603	7.2993
2.13077	7.27
2.12552	7.25
2.12031	7.2617
2.11512	7.2495
2.10995	7.2485
2.10481	7.1907
2.0997	7.1504
2.09461	7.1968
2.08954	7.2038
2.0845	7.168
2.07948	7.1377
