Name: Smectite Na0.33Fe2+3(Si,Al)4 O10.3H2O
Type: Mineral
Class: Silicates
Subclass: Phyllosilicates (Sheet silicates); Smectite Group
Particle Size: Fine  (0-2  Micrometers)
Sample No.: smectite.1
Owner: JHU
Wavelength Range: IR
Origin: Grant Co., Washington, USA via the Clay Mineral Society
Description: Described by CMS as a ferruginous smectite, the sample
Measurement: Bidirectional reflectance
X Units: Wavelength (micrometers)
Y Units: Reflectance (percent)
wavelength	value
25.0442	1.231
24.3388	1.6108
23.6719	1.6733
23.0407	1.6697
22.4422	1.6301
21.8741	1.604
21.334	1.4788
20.8199	1.3601
20.33	1.5615
19.8627	1.5825
19.4163	1.7771
18.9896	1.7239
18.5812	1.7602
18.19	1.6116
17.815	1.3938
17.4551	1.1455
17.1094	0.8831
16.7772	0.6916
16.4576	0.5837
16.15	0.5347
15.8537	0.5479
15.568	0.6123
15.2925	0.6958
15.0265	0.759
14.7697	0.7415
14.5214	0.7507
14.2814	0.8252
14.0492	0.9582
13.8244	1.0586
13.6067	1.1079
13.3957	1.146
13.1912	1.1243
12.9929	1.1443
12.8004	1.1118
12.6135	1.0864
12.432	1.1189
12.2557	1.0029
12.0843	0.9683
11.9176	1.1199
11.7555	1.0803
11.5977	0.9983
11.444	0.9297
11.2944	0.926
11.1487	1.0444
11.0067	1.0454
10.8682	0.9924
10.7332	0.9622
10.6015	0.9705
10.473	0.967
10.3476	0.9915
10.2251	1.0181
10.1056	1.0535
9.98873	1.1382
9.87458	1.2236
9.763	1.3137
9.65392	1.4416
9.54724	1.53
9.44291	1.5857
9.34082	1.5623
9.24091	1.427
9.14312	1.2881
9.04739	1.2036
8.95363	1.1929
8.8618	1.2519
8.77183	1.3088
8.68368	1.2546
8.59727	1.0605
8.51257	0.7778
8.42951	0.4736
8.34807	0.3076
8.26819	0.353
8.18981	0.5491
8.11292	0.8035
8.03745	1.0671
7.96337	1.345
7.89064	1.615
7.81924	1.8643
7.74911	2.1121
7.68023	2.3437
7.61256	2.5486
7.54608	2.738
7.48074	2.8843
7.41653	3.0444
7.35341	3.1643
7.29136	3.2781
7.23034	3.3745
7.17033	3.489
7.11132	3.6155
7.05327	3.7468
6.99616	3.8923
6.93996	4.0181
6.88467	4.1538
6.83024	4.2549
6.77667	4.3821
6.72393	4.4807
6.67201	4.5154
6.62089	4.55
6.57054	4.531
6.52095	4.4866
6.4721	4.3848
6.42398	4.2058
6.37657	3.9707
6.32986	3.5676
6.28382	2.8857
6.23845	1.9465
6.19373	1.3398
6.14965	1.0686
6.10619	1.0447
6.06334	1.1887
6.02109	1.4226
5.97942	1.8384
5.93832	2.3935
5.89778	2.9844
5.8578	3.5456
5.81835	3.9661
5.77943	4.3181
5.74103	4.6047
5.70314	4.812
5.66574	4.9751
5.62883	5.0412
5.5924	5.0654
5.55644	5.0393
5.52093	5.0178
5.48588	5.0161
5.45127	5.06
5.41709	5.1421
5.38334	5.2832
5.35	5.4382
5.31708	5.5925
5.28456	5.7043
5.25243	5.7883
5.2207	5.8635
5.18934	5.9602
5.15836	6.0776
5.12775	6.2243
5.09749	6.3994
5.0676	6.592
5.03805	6.7749
5.00884	6.9546
4.97998	7.0979
4.95144	7.2204
4.92322	7.3142
4.89533	7.4011
4.86775	7.4753
4.84048	7.5412
4.81351	7.5952
4.78684	7.6482
4.76047	7.6836
4.73439	7.7241
4.70859	7.7456
4.68306	7.7658
4.65782	7.7854
4.63284	7.8078
4.60814	7.8357
4.58369	7.8513
4.5595	7.8655
4.53557	7.8838
4.51188	7.9006
4.48845	7.9499
4.46525	7.9836
4.44229	8.0303
4.41957	8.074
4.39708	8.1323
4.37481	8.1882
4.35277	8.25
4.33096	8.3174
4.30935	8.3833
4.28797	8.4612
4.26679	8.5495
4.24583	8.6411
4.22506	8.7207
4.2045	8.8125
4.18414	8.8906
4.16398	8.9939
4.14401	9.0708
4.12423	9.1509
4.10464	9.239
4.08523	9.3274
4.066	9.4116
4.04696	9.4702
4.02809	9.551
4.0094	9.6079
3.99088	9.6538
3.97253	9.6863
3.95435	9.7055
3.93634	9.717
3.91848	9.7248
3.90079	9.7136
3.88326	9.6921
3.86589	9.6418
3.84867	9.6052
3.8316	9.5425
3.81468	9.4739
3.79791	9.393
3.78129	9.3147
3.76482	9.2309
3.74848	9.1264
3.73229	9.03
3.71624	8.9182
3.70032	8.7832
3.68454	8.6323
3.6689	8.4868
3.65338	8.343
3.638	8.2077
3.62275	8.0549
3.60762	7.9292
3.59262	7.782
3.57775	7.6252
3.56299	7.4612
3.54836	7.2661
3.53385	7.0639
3.51945	6.8249
3.50517	6.5014
3.49101	6.4201
3.47696	6.271
3.46303	6.0749
3.4492	5.8572
3.43549	5.6098
3.42188	5.27
3.40838	5.0874
3.39499	5.0083
3.38171	4.8489
3.36852	4.6804
3.35544	4.4819
3.34246	4.2766
3.32958	4.0757
3.3168	3.8779
3.30411	3.6782
3.29153	3.4709
3.27903	3.2781
3.26664	3.0908
3.25433	2.9228
3.24212	2.731
3.23	2.5713
3.21797	2.4123
3.20603	2.261
3.19418	2.1199
3.18241	2.0007
3.17074	1.8806
3.15914	1.7537
3.14763	1.6504
3.13621	1.5644
3.12487	1.4836
3.11361	1.4143
3.10243	1.3667
3.09133	1.3296
3.0803	1.2947
3.06936	1.2749
3.0585	1.2544
3.04771	1.269
3.037	1.2395
3.02636	1.2051
3.0158	1.1658
3.00531	1.1274
2.99489	1.1057
2.98454	1.0781
2.97427	1.0471
2.96407	1.0132
2.95393	1.0193
2.94387	0.9978
2.93387	0.9695
2.92394	0.977
2.91408	0.978
2.90429	0.9653
2.89456	0.9851
2.88489	0.9768
2.87529	0.9727
2.86576	0.9648
2.85628	0.9607
2.84687	0.9426
2.83752	0.9214
2.82823	0.8047
2.81901	0.6985
2.80984	0.6152
2.80073	0.5354
2.79168	0.5215
2.78269	0.5181
2.77376	0.521
2.76488	0.5312
2.75606	0.5686
2.7473	0.6218
2.73859	0.7336
2.72994	0.9036
2.72134	1.1929
2.7128	1.7908
2.70431	2.6606
2.69587	3.6018
2.68748	4.737
2.67915	5.5481
2.67087	6.1462
2.66264	6.6379
2.65446	6.9751
2.64633	7.2554
2.63825	7.5
2.63021	7.6672
2.62223	7.8347
2.6143	7.9743
2.60641	8.1028
2.59857	8.2156
2.59078	8.3152
2.58304	8.373
2.57534	8.4597
2.56768	8.5412
2.56008	8.5984
2.55251	8.643
2.54499	8.7026
2.53752	8.7781
2.53009	8.8127
2.5227	8.8235
2.51536	8.894
2.50806	8.9289
2.5008	8.9839
2.49358	9.0644
2.4864	9.1977
2.47927	9.3481
2.47218	9.4553
2.46512	9.4812
2.45811	9.6211
2.45114	9.6965
2.4442	9.7861
2.43731	9.8559
2.43045	9.9089
2.42363	10.0053
2.41685	10.0051
2.41011	10.0088
2.40341	10.0183
2.39674	10.082
2.39011	10.2102
2.38352	10.3528
2.37696	10.4795
2.37044	10.6235
2.36395	10.8457
2.35751	11.063
2.35109	11.258
2.34471	11.4013
2.33836	11.5295
2.33205	11.6079
2.32578	11.6518
2.31953	11.6955
2.31332	11.5744
2.30714	11.2973
2.301	11.0024
2.29489	10.6548
2.28881	10.4673
2.28276	10.5595
2.27675	10.8828
2.27076	11.3318
2.26481	11.6814
2.25889	11.8537
2.253	11.8591
2.24714	11.7214
2.24131	11.5971
2.23551	11.6364
2.22974	11.6833
2.224	11.8569
2.21829	12.1403
2.21261	12.3193
2.20696	12.4531
2.20134	12.5649
2.19574	12.6452
2.19018	12.7844
2.18464	12.8486
2.17913	12.9629
2.17365	13.1914
2.16819	13.3288
2.16277	13.3637
2.15737	13.4724
2.15199	13.4819
2.14665	13.4692
2.14133	13.4587
2.13603	13.5278
2.13077	13.4624
2.12552	13.4673
2.12031	13.5088
2.11512	13.5756
2.10995	13.5566
2.10481	13.5669
2.0997	13.5112
2.09461	13.5322
2.08954	13.6006
2.0845	13.6001
2.07948	13.5881
