Name: 61241.98
Type: Soil
Class: Lunar
Subclass: Highlands
Particle Size: Fine
Sample No.: 61241.98
Owner: JHU
Origin: Apollo 16 landing site via the NASA Lunar Sample Repository at Johnson
Description: This sample is one of a suite of relatively less aluminous soils
Measurement: Directional (10 degree) hemispherical reflectance
X Units: Wavelength (micrometers)
Y Units: Reflectance (percent)
wavelength	value
14.011	1.0062
13.788	1.1111
13.571	1.2366
13.361	1.3764
13.158	1.3291
12.96	1.4972
12.769	1.6815
12.583	2.0487
12.402	2.3747
12.227	2.5442
12.056	2.4838
11.89	2.3999
11.729	2.4156
11.572	2.4377
11.419	2.471
11.27	2.4202
11.125	2.3521
10.983	2.3282
10.846	2.3914
10.711	2.3735
10.58	2.2348
10.452	2.1555
10.327	1.9814
10.205	1.8169
10.086	1.7913
9.97	1.6973
9.856	1.6696
9.745	1.7181
9.636	1.6371
9.53	1.6012
9.426	1.5569
9.324	1.5324
9.225	1.505
9.127	1.5615
9.032	1.4878
8.938	1.3485
8.847	1.2029
8.757	1.1424
8.669	1.0961
8.583	1.0043
8.499	0.9487
8.416	0.8323
8.335	0.7506
8.255	0.7028
8.177	0.7642
8.1	0.9322
8.025	1.2426
7.951	1.663
7.879	2.166
7.808	2.7162
7.737	3.2898
7.669	3.8758
7.601	4.4792
7.535	5.0484
7.47	5.6025
7.406	6.1883
7.343	6.7041
7.281	7.2299
7.22	7.6981
7.16	8.1628
7.102	8.5794
7.044	8.9176
6.987	9.3247
6.931	9.6434
6.875	9.8989
6.821	10.112
6.768	10.34
6.715	10.471
6.663	10.584
6.612	10.698
6.562	10.811
6.513	10.997
6.464	11.187
6.416	11.096
6.369	11.308
6.322	11.368
6.276	11.447
6.231	11.537
6.186	11.538
6.142	11.769
6.099	11.921
6.056	11.932
6.014	12.228
5.973	12.601
5.931	12.99
5.891	13.483
5.851	14.035
5.812	14.441
5.773	14.799
5.735	15.195
5.697	15.385
5.66	15.549
5.623	15.846
5.586	16.078
5.551	16.283
5.515	16.365
5.48	16.358
5.446	16.45
5.411	16.585
5.378	16.803
5.345	16.971
5.312	17.175
5.279	17.442
5.247	17.768
5.215	18.095
5.184	18.501
5.153	18.877
5.123	19.329
5.093	19.731
5.063	20.103
5.033	20.531
5.004	20.969
4.975	21.393
4.947	21.867
4.919	22.351
4.891	22.77
4.863	23.183
4.836	23.59
4.809	23.953
4.782	24.29
4.756	24.642
4.73	24.998
4.704	25.381
4.679	25.73
4.654	26.062
4.629	26.446
4.604	26.804
4.58	27.13
4.556	27.39
4.532	27.64
4.508	27.83
4.485	27.976
4.461	28.101
4.439	28.215
4.416	28.254
4.393	28.356
4.371	28.445
4.349	28.588
4.327	28.73
4.306	28.864
4.284	29.016
4.263	29.102
4.242	29.225
4.222	29.263
4.201	29.303
4.181	29.315
4.161	29.321
4.141	29.389
4.121	29.373
4.101	29.398
4.082	29.416
4.063	29.408
4.044	29.424
4.025	29.45
4.006	29.444
3.988	29.451
3.97	29.453
3.951	29.465
3.933	29.437
3.916	29.407
3.898	29.395
3.88	29.388
3.863	29.344
3.846	29.315
3.829	29.277
3.812	29.277
3.795	29.2
3.779	29.181
3.762	29.164
3.746	29.114
3.73	29.056
3.714	29.01
3.698	28.968
3.682	28.913
3.666	28.865
3.651	28.82
3.636	28.778
3.62	28.732
3.605	28.648
3.59	28.626
3.575	28.571
3.561	28.508
3.546	28.452
3.531	28.387
3.517	28.377
3.503	28.342
3.489	28.229
3.475	28.198
3.461	28.135
3.447	28.099
3.433	28.053
3.42	27.983
3.406	27.917
3.393	27.846
3.38	27.728
3.366	27.682
3.353	27.661
3.34	27.583
3.327	27.528
3.315	27.458
3.302	27.387
3.289	27.356
3.277	27.298
3.265	27.189
3.252	27.122
3.24	27.062
3.228	26.999
3.216	26.958
3.204	26.836
3.192	26.746
3.18	26.734
3.169	26.64
3.157	26.614
3.146	26.507
3.134	26.467
3.123	26.412
3.112	26.343
3.101	26.29
3.09	26.227
3.079	26.178
3.067	26.136
3.057	26.011
3.046	26.011
3.035	25.952
3.025	25.911
3.014	25.799
3.004	25.778
2.993	25.666
2.983	25.652
2.973	25.597
2.962	25.57
2.952	25.507
2.942	25.466
2.932	25.421
2.922	25.401
2.912	25.393
2.903	25.329
2.893	25.296
2.883	25.313
2.874	25.252
2.864	25.28
2.855	25.205
2.845	25.221
2.836	25.174
2.827	25.177
2.817	25.226
2.808	25.241
2.799	25.358
2.79	25.412
2.781	25.467
2.772	25.579
2.763	25.718
2.755	25.76
2.746	26.126
2.737	26.254
2.728	26.357
2.72	26.239
2.711	26.323
2.703	26.597
2.695	26.366
2.686	26.541
2.678	26.368
2.67	26.259
2.661	26.505
2.653	26.448
2.645	26.461
2.637	26.475
2.629	26.264
2.621	26.195
2.613	26.296
2.605	26
2.597	26.137
2.59	26.112
2.582	26.028
2.574	25.943
2.566	25.993
2.559	25.96
2.551	25.878
2.544	25.833
2.536	25.748
2.529	25.73
2.522	25.676
2.514	25.647
2.507	25.567
2.5	25.492
2.492	25.432
2.485	25.385
2.478	25.344
2.471	25.294
2.464	25.25
2.457	25.158
2.45	25.102
2.443	25.075
2.436	25
2.429	24.96
2.422	24.938
2.416	24.866
2.409	24.807
2.402	24.763
2.396	24.717
2.389	24.648
2.382	24.656
2.376	24.532
2.369	24.489
2.363	24.465
2.356	24.435
2.35	24.404
2.344	24.32
2.337	24.269
2.331	24.235
2.325	24.185
2.318	24.153
2.312	24.12
2.306	24.058
2.3	24.008
2.294	24.002
2.288	23.918
2.282	23.863
2.276	23.795
2.27	23.798
2.264	23.764
2.258	23.73
2.252	23.626
2.246	23.58
2.24	23.555
2.235	23.532
2.229	23.484
2.223	23.462
2.217	23.382
2.212	23.415
2.206	23.314
2.2	23.339
2.195	23.248
2.189	23.248
2.184	23.185
2.178	23.209
2.173	23.136
2.167	23.101
2.162	23.138
2.156	23.067
2.151	23.005
2.146	22.953
2.14	22.928
2.135	22.884
2.13	22.906
2.125	22.828
2.119	22.868
2.114	22.751
2.109	22.754
2.104	22.713
2.099	22.682
2.094	22.634
2.089	22.645
2.084	22.536
