Name: Phlogopite KMg3Si3Al010(F,OH)2
Type: Mineral
Class: Silicates
Subclass: Phyllosilicates (Sheet Silicates); (Mica Group)
Particle Size: Solid
Sample No.: phlogop.1
Owner: JHU
Wavelength Range: IR
Origin: Burgess, Ontario, Canada via the Smithsonian (sample no.
Description: The hand sample consisted of rectangular sheets
Measurement: Bidirectional reflectance
X Units: Wavelength (micrometers)
Y Units: Reflectance (percent)
wavelength	value
25.0442	28.539
24.3388	30.165
23.6719	32.6728
23.0407	36.4618
22.4422	43.66
21.8741	54.9178
21.334	64.6273
20.8199	62.8094
20.33	56.6214
19.8627	63.1981
19.4163	62.3856
18.9896	59.4881
18.5812	61.5897
18.19	64.6722
17.815	57.3487
17.4551	40.2929
17.1094	25.8283
16.7772	23.2001
16.4576	22.8251
16.15	22.0654
15.8537	21.4672
15.568	21.2138
15.2925	21.6708
15.0265	21.2883
14.7697	21.1787
14.5214	21.3354
14.2814	21.0893
14.0492	21.7778
13.8244	22.09
13.6067	21.7414
13.3957	21.1166
13.1912	21.343
12.9929	21.6782
12.8004	21.9706
12.6135	22.6975
12.432	23.288
12.2557	23.8066
12.0843	23.1044
11.9176	23.9257
11.7555	24.686
11.5977	25.2055
11.444	25.9587
11.2944	26.8381
11.1487	27.6015
11.0067	28.2641
10.8682	28.9853
10.7332	30.0468
10.6015	31.7792
10.473	34.6
10.3476	38.2504
10.2251	40.0045
10.1056	42.2289
9.98873	50.6039
9.87458	63.3006
9.763	66.6053
9.65392	61.7747
9.54724	56.4349
9.44291	53.6483
9.34082	55.3497
9.24091	58.7206
9.14312	60.5321
9.04739	57.7081
8.95363	47.389
8.8618	41.8432
8.77183	36.786
8.68368	28.7983
8.59727	18.6696
8.51257	8.4634
8.42951	7.5193
8.34807	9.4082
8.26819	10.8755
8.18981	12.0063
8.11292	12.9223
8.03745	13.696
7.96337	14.2773
7.89064	14.7795
7.81924	15.227
7.74911	15.5695
7.68023	15.9055
7.61256	16.2456
7.54608	16.5459
7.48074	16.7614
7.41653	17.08
7.35341	17.3378
7.29136	17.602
7.23034	17.8723
7.17033	17.9812
7.11132	18.2531
7.05327	18.3122
6.99616	18.6418
6.93996	19.0483
6.88467	19.3176
6.83024	19.3891
6.77667	19.3933
6.72393	19.4394
6.67201	20.061
6.62089	20.5136
6.57054	20.384
6.52095	20.1757
6.4721	20.4736
6.42398	20.5219
6.37657	20.3071
6.32986	20.3818
6.28382	20.3969
6.23845	20.2026
6.19373	20.1105
6.14965	20.0817
6.10619	20.0351
6.06334	20.1249
6.02109	20.0766
5.97942	20.1347
5.93832	20.0217
5.89778	19.9965
5.8578	20.0671
5.81835	20.2353
5.77943	20.2104
5.74103	20.3376
5.70314	20.5258
5.66574	20.4226
5.62883	20.6948
5.5924	20.8615
5.55644	20.8139
5.52093	21.2299
5.48588	21.0498
5.45127	21.414
5.41709	21.832
5.38334	22.0163
5.35	23.124
5.31708	23.8588
5.28456	24.6191
5.25243	25.4487
5.2207	25.393
5.18934	25.5063
5.15836	25.4992
5.12775	25.0605
5.09749	24.9047
5.0676	24.6166
5.03805	24.4628
5.00884	24.2419
4.97998	24.3237
4.95144	24.2968
4.92322	24.2421
4.89533	24.2934
4.86775	24.2187
4.84048	24.5761
4.81351	24.7429
4.78684	25.2951
4.76047	25.8122
4.73439	26.3747
4.70859	27.1064
4.68306	27.3066
4.65782	28.1093
4.63284	28.4091
4.60814	29.1244
4.58369	29.8769
4.5595	30.0319
4.53557	30.8278
4.51188	30.6874
4.48845	31.0434
4.46525	31.2258
4.44229	30.9794
4.41957	31.558
4.39708	31.0356
4.37481	31.559
4.35277	31.2524
4.33096	31.0219
4.30935	30.9501
4.28797	30.2348
4.26679	30.7358
4.24583	30.04
4.22506	30.4452
4.2045	31.1845
4.18414	31.6742
4.16398	31.8798
4.14401	31.5458
4.12423	32.122
4.10464	31.5487
4.08523	32.1396
4.066	31.7897
4.04696	32.121
4.02809	32.0126
4.0094	32.0758
3.99088	32.2729
3.97253	32.1493
3.95435	32.4174
3.93634	32.3246
3.91848	32.4814
3.90079	32.4735
3.88326	32.3444
3.86589	32.5302
3.84867	32.3715
3.8316	32.6527
3.81468	32.4438
3.79791	32.7333
3.78129	32.6552
3.76482	32.8297
3.74848	32.8461
3.73229	32.8324
3.71624	32.9433
3.70032	32.7445
3.68454	32.9316
3.6689	32.7411
3.65338	32.9032
3.638	32.7131
3.62275	32.9006
3.60762	32.8446
3.59262	32.8808
3.57775	32.8407
3.56299	32.8329
3.54836	32.7934
3.53385	32.786
3.51945	32.6933
3.50517	32.6454
3.49101	32.8092
3.47696	32.7721
3.46303	32.9538
3.4492	32.8117
3.43549	32.9277
3.42188	32.6376
3.40838	32.8097
3.39499	32.8461
3.38171	32.8708
3.36852	32.8805
3.35544	32.738
3.34246	32.8263
3.32958	32.7082
3.3168	32.7257
3.30411	32.404
3.29153	32.4552
3.27903	32.0937
3.26664	32.0387
3.25433	31.7177
3.24212	31.5531
3.23	31.2338
3.21797	31.1347
3.20603	31.3212
3.19418	31.5219
3.18241	32.0353
3.17074	31.996
3.15914	32.2284
3.14763	32.0236
3.13621	31.9809
3.12487	31.7072
3.11361	31.5502
3.10243	31.5981
3.09133	31.5617
3.0803	31.9709
3.06936	31.9247
3.0585	32.1943
3.04771	32.0126
3.037	32.2226
3.02636	32.122
3.0158	32.2377
3.00531	32.0717
2.99489	32.0981
2.98454	32.1642
2.97427	32.0722
2.96407	32.0243
2.95393	31.7587
2.94387	31.8244
2.93387	31.5356
2.92394	31.599
2.91408	31.2797
2.90429	31.4172
2.89456	31.3215
2.88489	31.2821
2.87529	31.1779
2.86576	31.0588
2.85628	30.9423
2.84687	30.5888
2.83752	30.5976
2.82823	30.371
2.81901	30.3935
2.80984	30.163
2.80073	29.8071
2.79168	29.3881
2.78269	28.6718
2.77376	28.164
2.76488	27.4145
2.75606	26.3339
2.7473	25.9404
2.73859	25.8701
2.72994	25.9706
2.72134	26.8945
2.7128	25.8847
2.70431	22.6538
2.69587	21.8056
2.68748	25.2206
2.67915	30.0097
2.67087	31.6562
2.66264	31.7821
2.65446	31.307
2.64633	30.6376
2.63825	30.1513
2.63021	30.5282
2.62223	30.891
2.6143	31.0165
2.60641	31.0961
2.59857	30.9443
2.59078	31.0785
2.58304	30.8642
2.57534	30.8774
2.56768	30.4863
2.56008	30.4262
2.55251	30.4985
2.54499	30.745
2.53752	30.8642
2.53009	31.0063
2.5227	31.0199
2.51536	30.7392
2.50806	30.6196
2.5008	30.5517
2.49358	30.8359
2.4864	30.9281
2.47927	30.8915
2.47218	30.8007
2.46512	30.7577
2.45811	30.6352
2.45114	30.4047
2.4442	30.2778
2.43731	30.2226
2.43045	30.434
2.42363	30.413
2.41685	30.2738
2.41011	29.8852
2.40341	29.7504
2.39674	29.3149
2.39011	28.496
2.38352	27.6176
2.37696	27.6659
2.37044	28.3788
2.36395	29.1
2.35751	29.4452
2.35109	29.3886
2.34471	29.1406
2.33836	28.498
2.33205	26.9999
2.32578	26.0117
2.31953	26.2743
2.31332	26.9843
2.30714	28.1093
2.301	29.0741
2.29489	29.7011
2.28881	30.3183
2.28276	30.9599
2.27675	31.4989
2.27076	31.7568
2.26481	31.9452
2.25889	31.6845
2.253	31.2978
2.24714	30.6943
2.24131	31.1073
2.23551	31.9931
2.22974	32.7245
2.224	32.8446
2.21829	33.0546
2.21261	32.9413
2.20696	33.0331
2.20134	32.997
2.19574	33.1308
2.19018	33.0292
2.18464	32.9921
2.17913	32.9345
2.17365	32.955
2.16819	32.9775
2.16277	32.9843
2.15737	32.9277
2.15199	32.9569
2.14665	32.9491
2.14133	32.8915
2.13603	32.9062
2.13077	33.0048
2.12552	32.9071
2.12031	32.8954
2.11512	32.9413
2.10995	32.8632
2.10481	32.8398
2.0997	32.8407
2.09461	32.7948
2.08954	32.7118
2.0845	32.7304
2.07948	32.6991
