Name: Limestone
Type: Rocks
Class: Sedimentary
Subclass: Limestone
Particle Size: 500 - 1500 Micrometers
Sample No.: limestone.3
Owner: JHU
Wavelength Range: All
Origin: Sample No. 381,  The Hunt and Salisbury Collection at the U.S.
Description: This is a very clean fine-grained to microcrystalline
Measurement: Directional (10 Degree) Hemispherical Reflectance
X Units: Wavelength (micrometers)
Y Units: Reflectance (percent)
wavelength	value
14.0112	2.3823
13.7147	2.2165
13.4304	1.7758
13.1577	2.5967
12.8959	3.1433
12.6443	3.3812
12.4023	3.4967
12.1694	3.4477
11.945	3.4541
11.7289	3.0993
11.5203	3.9746
11.3191	7.6672
11.1248	14.7727
10.937	10.0993
10.7555	8.6788
10.5799	7.8491
10.4099	7.4803
10.2454	6.4269
10.0859	5.6587
9.9313	5.2491
9.7814	4.9344
9.636	4.7832
9.4948	5.3785
9.3577	5.2261
9.2245	5.3337
9.095	4.6222
8.9691	5.4163
8.8467	5.5304
8.7275	5.3541
8.6116	5.501
8.4986	4.985
8.3886	4.6636
8.2814	5.3007
8.1769	4.9261
8.075	4.8442
7.9756	5.1357
7.8786	5.4282
7.784	5.3675
7.6916	5.2881
7.6014	5.623
7.5133	5.6365
7.4272	5.7778
7.343	5.9695
7.2607	6.0676
7.1803	6.4573
7.1016	7.4825
7.0246	11.0501
6.9493	11.2534
6.8755	11.4841
6.8034	12.3036
6.7327	13.2742
6.6634	14.7578
6.5956	17.0138
6.5292	19.7059
6.464	22.9601
6.4002	24.9042
6.3376	18.4927
6.2762	7.3696
6.216	4.0018
6.157	3.0096
6.099	2.0775
6.0421	1.8164
5.9863	1.6918
5.9315	1.6289
5.8777	1.5511
5.8249	1.5054
5.773	1.4202
5.722	1.4001
5.6719	1.4255
5.6227	1.3661
5.5744	1.3327
5.5268	1.2652
5.4801	1.1946
5.4341	1.5781
5.3889	2.121
5.3445	2.5003
5.3008	2.7309
5.2578	3.0821
5.2154	3.6075
5.1738	4.0116
5.1328	4.383
5.0925	4.5048
5.0528	4.0111
5.0137	5.062
4.9752	5.2536
4.9373	5.344
4.9	5.4146
4.8632	5.4699
4.827	5.5053
4.7913	5.4805
4.7561	5.4491
4.7215	5.2888
4.6873	4.6633
4.6536	3.5706
4.6205	3.4092
4.5877	3.7391
4.5555	4.3109
4.5237	4.7105
4.4923	5.3639
4.4614	5.1213
4.4309	4.8471
4.4008	5.4022
4.3711	5.8788
4.3418	5.6309
4.3129	4.8588
4.2844	4.2583
4.2563	4.3031
4.2285	4.8119
4.2011	5.6921
4.174	5.7874
4.1473	5.513
4.1209	5.5321
4.0949	5.3143
4.0692	4.8567
4.0438	4.2332
4.0187	3.5015
3.994	2.8706
3.9695	2.367
3.9453	2.287
3.9214	2.3431
3.8979	2.5785
3.8746	2.6498
3.8515	2.9649
3.8288	3.0893
3.8063	2.7553
3.7841	3.0417
3.7621	3.6284
3.7404	4.9368
3.7189	5.672
3.6977	6.0975
3.6767	6.4406
3.656	6.5851
3.6355	6.6815
3.6152	6.6564
3.5951	6.6117
3.5753	6.4879
3.5557	5.795
3.5363	5.6
3.5171	4.7114
3.4981	3.5537
3.4793	3.0132
3.4607	2.8505
3.4423	2.8211
3.4241	3.1632
3.4061	3.268
3.3883	3.3733
3.3707	3.5312
3.3533	3.3077
3.336	3.2355
3.3189	3.1377
3.302	3.1646
3.2853	4.5207
3.2687	5.0981
3.2523	5.3577
3.2361	5.5608
3.22	5.5982
3.204	5.5431
3.1883	5.5422
3.1727	5.4951
3.1572	5.3771
3.1419	5.227
3.1268	5.0974
3.1117	5.0505
3.0969	4.9935
3.0821	4.9022
3.0675	4.8871
3.0531	4.8282
3.0388	4.8495
3.0246	4.7651
3.0105	4.7727
2.9966	4.7021
2.9828	4.6761
2.9692	4.6143
2.9556	4.6394
2.9422	4.5689
2.9289	4.6344
2.9157	4.6409
2.9027	4.6973
2.8897	4.775
2.8769	4.8263
2.8642	4.9875
2.8516	4.9986
2.8391	5.2079
2.8267	5.3792
2.8144	5.5029
2.8022	5.6651
2.7902	5.7469
2.7782	5.8484
2.7664	5.8915
2.7546	6.2647
2.7429	6.6729
2.7314	7.1772
2.7199	7.6368
2.7085	7.8646
2.6973	8.368
2.6861	8.6623
2.675	8.9241
2.664	9.0016
2.6531	9.1155
2.6423	9.1777
2.6315	9.1598
2.6209	9.2154
2.6103	9.2416
2.5999	9.1714
2.5895	9.2363
2.5792	9.1915
2.569	9.1717
2.5588	9.0853
2.5487	8.9679
2.5388	8.5941
2.5289	8.2273
2.519	7.9945
2.5093	8.0211
2.4996	8.1489
2.49	8.3541
2.4805	8.5207
2.471	8.6001
2.4616	8.6424
2.4523	8.7398
2.4431	8.881
2.4339	9.015
2.4248	9.1707
2.4157	9.1901
2.4068	9.2815
2.3979	9.3074
2.389	9.3459
2.3802	9.3406
2.3715	9.347
2.3629	9.4048
2.3543	9.3416
2.3458	9.2111
2.3373	9.0526
2.3289	8.8762
2.3206	8.8487
2.3123	8.8547
2.3041	8.9717
2.2959	8.9875
2.2878	9.0889
2.2798	9.1095
2.2718	9.1846
2.2638	9.187
2.2559	9.2831
2.2481	9.2961
2.2403	9.3643
2.2326	9.4005
2.225	9.4136
2.2173	9.4875
2.2098	9.5019
2.2023	9.5208
2.1948	9.4989
2.1874	9.5478
2.18	9.532
2.1727	9.5186
2.1655	9.6066
2.1583	9.5325
2.1511	9.5923
2.144	9.5414
2.1369	9.4921
2.1299	9.5557
2.1229	9.6402
2.116	9.6282
2.1091	9.5624
2.1023	9.6564
2.0955	9.6222
2.0887	9.6287
2.082	9.6018
2.06	9.7413
2.028	9.7836
1.996	9.8175
1.964	9.8747
1.932	9.818
1.9	9.9687
1.868	10.044
1.836	10.1431
1.804	10.195
1.772	10.327
1.74	10.4316
1.708	10.4173
1.676	10.5335
1.644	10.352
1.612	10.254
1.58	10.5393
1.548	10.5062
1.516	10.5185
1.484	10.5995
1.452	10.673
1.42	10.5727
1.388	10.665
1.356	10.694
1.324	10.894
1.292	10.7058
1.26	10.7419
1.228	10.7788
1.196	10.8041
1.164	10.8468
1.132	10.9089
1.1	11.0329
1.068	10.939
1.036	10.9344
1.004	11.2636
0.972	11.1019
0.94	11.3359
0.908	11.6965
0.876	11.592
0.844	11.8445
0.812	11.7517
0.795	11.7926
0.787	11.8853
0.779	12.0833
0.771	11.9484
0.763	12.0221
0.755	12.0608
0.747	12.0038
0.739	12.155
0.731	12.1873
0.723	12.1639
0.715	12.1704
0.707	12.1899
0.699	12.2291
0.691	12.1673
0.683	12.1475
0.675	12.4921
0.667	12.5548
0.659	12.5548
0.651	12.7132
0.643	12.5917
0.635	12.7711
0.627	12.5704
0.619	12.7254
0.611	12.6845
0.603	12.7473
0.595	12.8035
0.587	12.8688
0.579	13.101
0.571	12.8637
0.563	13.0902
0.555	12.8519
0.547	12.9956
0.539	13.1976
0.531	12.7122
0.523	13.0257
0.515	13.0398
0.507	13.0183
0.499	12.867
0.491	12.8027
0.483	13.0882
0.475	13.1758
0.467	12.7521
0.459	12.7769
0.451	12.3638
0.443	12.3868
0.435	11.975
0.427	12.0554
0.419	11.9914
0.411	11.6956
0.403	11.4298
