Name: Hedenbergite CaFe+2Si2O6
Type: Mineral
Class: Silicates
Subclass: Inosilicates (Single chain Pyroxene Group)
Particle Size: Fine  (0-74 Micrometers)
Sample No.: hedenber.1
Owner: JHU
Wavelength Range: IR
Origin: Eureka Mine, 2nd Level, Sub-level 1, 135 N, 645E, Ducktown,
Description: The sample was made up of three large pieces and three
Measurement: Bidirectional reflectance
X Units: Wavelength (micrometers)
Y Units: Reflectance (percent)
wavelength	value
25.0442	2.2881
24.3388	2.2114
23.6719	2.4473
23.0407	2.6262
22.4422	2.6025
21.8741	2.7405
21.334	2.8555
20.8199	2.7727
20.33	2.4971
19.8627	2.581
19.4163	2.5478
18.9896	2.5889
18.5812	2.6997
18.19	2.7954
17.815	3.0415
17.4551	3.0957
17.1094	2.7939
16.7772	2.3691
16.4576	1.9729
16.15	1.6758
15.8537	1.3188
15.568	1.2319
15.2925	1.6033
15.0265	1.6218
14.7697	1.4338
14.5214	2.3757
14.2814	3.0786
14.0492	3.7864
13.8244	4.2512
13.6067	4.4582
13.3957	4.4241
13.1912	4.2168
12.9929	4.0139
12.8004	3.7068
12.6135	3.5061
12.432	3.3303
12.2557	2.9968
12.0843	2.5469
11.9176	2.2078
11.7555	2.1147
11.5977	2.2258
11.444	2.2593
11.2944	2.2673
11.1487	2.2798
11.0067	2.2678
10.8682	2.2412
10.7332	2.0603
10.6015	2.2244
10.473	2.1331
10.3476	2.1421
10.2251	1.8176
10.1056	1.2722
9.98873	1.2417
9.87458	1.4434
9.763	1.5325
9.65392	1.4705
9.54724	1.4653
9.44291	1.7119
9.34082	2.0024
9.24091	2.1296
9.14312	2.2383
9.04739	2.4241
8.95363	2.8523
8.8618	3.3115
8.77183	3.7756
8.68368	3.4292
8.59727	2.7329
8.51257	2.1797
8.42951	2.0478
8.34807	2.2766
8.26819	2.7153
8.18981	3.2642
8.11292	3.8042
8.03745	4.3674
7.96337	4.9709
7.89064	5.4744
7.81924	5.9343
7.74911	6.4665
7.68023	6.9414
7.61256	7.2654
7.54608	7.5161
7.48074	7.8076
7.41653	8.0547
7.35341	8.0984
7.29136	7.9687
7.23034	7.938
7.17033	8.083
7.11132	8.3481
7.05327	8.6162
6.99616	8.782
6.93996	8.9348
6.88467	8.9321
6.83024	8.6509
6.77667	8.4336
6.72393	7.9062
6.67201	7.5166
6.62089	7.5359
6.57054	7.3576
6.52095	7.2051
6.4721	7.2136
6.42398	7.4936
6.37657	8.0583
6.32986	8.3904
6.28382	8.5115
6.23845	8.7868
6.19373	8.9936
6.14965	8.8796
6.10619	8.6216
6.06334	8.9775
6.02109	9.2104
5.97942	10.0271
5.93832	11.2248
5.89778	12.1067
5.8578	12.3459
5.81835	12.6911
5.77943	13.1701
5.74103	13.509
5.70314	13.7646
5.66574	13.9143
5.62883	13.9148
5.5924	13.8271
5.55644	13.7273
5.52093	13.7236
5.48588	13.4409
5.45127	12.9309
5.41709	12.3291
5.38334	12.0193
5.35	11.7871
5.31708	11.6665
5.28456	11.5107
5.25243	11.6255
5.2207	11.6836
5.18934	11.3974
5.15836	10.9765
5.12775	10.4314
5.09749	9.73
5.0676	9.5547
5.03805	10.176
5.00884	10.7732
4.97998	10.9917
4.95144	11.0598
4.92322	11.2041
4.89533	11.3239
4.86775	11.5964
4.84048	11.9641
4.81351	12.3694
4.78684	12.7119
4.76047	12.8735
4.73439	13.2805
4.70859	13.8203
4.68306	14.2522
4.65782	14.4631
4.63284	14.8527
4.60814	15.2373
4.58369	15.656
4.5595	15.9963
4.53557	16.3725
4.51188	16.7429
4.48845	16.9262
4.46525	17.039
4.44229	17.1157
4.41957	17.1967
4.39708	17.2666
4.37481	17.3276
4.35277	17.371
4.33096	17.4252
4.30935	17.4714
4.28797	17.5117
4.26679	17.5705
4.24583	17.6154
4.22506	17.6545
4.2045	17.6777
4.18414	17.7158
4.16398	17.7255
4.14401	17.7363
4.12423	17.7373
4.10464	17.7622
4.08523	17.7841
4.066	17.7783
4.04696	17.7666
4.02809	17.7463
4.0094	17.6804
3.99088	17.5747
3.97253	17.562
3.95435	17.6359
3.93634	17.7226
3.91848	17.7458
3.90079	17.7678
3.88326	17.7651
3.86589	17.768
3.84867	17.7551
3.8316	17.7607
3.81468	17.7641
3.79791	17.78
3.78129	17.7812
3.76482	17.7631
3.74848	17.7519
3.73229	17.7343
3.71624	17.7092
3.70032	17.6735
3.68454	17.6298
3.6689	17.5952
3.65338	17.5764
3.638	17.5388
3.62275	17.4882
3.60762	17.4577
3.59262	17.4216
3.57775	17.3776
3.56299	17.3237
3.54836	17.2443
3.53385	17.1535
3.51945	16.9956
3.50517	16.6677
3.49101	16.6464
3.47696	16.5996
3.46303	16.6398
3.4492	16.5603
3.43549	16.4326
3.42188	16.1396
3.40838	16.0725
3.39499	16.2829
3.38171	16.2854
3.36852	16.3491
3.35544	16.4091
3.34246	16.5629
3.32958	16.6799
3.3168	16.7014
3.30411	16.7138
3.29153	16.7067
3.27903	16.6608
3.26664	16.6291
3.25433	16.5532
3.24212	16.5046
3.23	16.4624
3.21797	16.3906
3.20603	16.3466
3.19418	16.2719
3.18241	16.2216
3.17074	16.154
3.15914	16.0998
3.14763	16.0288
3.13621	15.9531
3.12487	15.885
3.11361	15.82
3.10243	15.7927
3.09133	15.7358
3.0803	15.6919
3.06936	15.6347
3.0585	15.6047
3.04771	15.5669
3.037	15.5266
3.02636	15.4812
3.0158	15.3886
3.00531	15.2898
2.99489	15.2075
2.98454	15.1259
2.97427	15.0498
2.96407	15.0256
2.95393	15.0422
2.94387	15.0395
2.93387	15.0293
2.92394	14.9477
2.91408	14.8735
2.90429	14.7754
2.89456	14.6674
2.88489	14.6494
2.87529	14.8115
2.86576	15.0385
2.85628	15.1557
2.84687	15.1338
2.83752	15.0629
2.82823	14.9985
2.81901	15.0644
2.80984	15.3786
2.80073	15.7348
2.79168	16.0097
2.78269	16.1733
2.77376	16.2575
2.76488	16.3198
2.75606	16.3923
2.7473	16.4755
2.73859	16.8493
2.72994	16.9204
2.72134	17.0488
2.7128	18.0859
2.70431	18.3696
2.69587	18.5361
2.68748	18.6813
2.67915	18.8183
2.67087	18.8684
2.66264	18.9663
2.65446	18.9536
2.64633	18.9528
2.63825	18.9426
2.63021	18.9206
2.62223	18.9404
2.6143	18.9431
2.60641	18.9199
2.59857	18.9094
2.59078	18.8808
2.58304	18.8964
2.57534	18.9143
2.56768	18.874
2.56008	18.8466
2.55251	18.81
2.54499	18.7836
2.53752	18.7844
2.53009	18.7465
2.5227	18.6738
2.51536	18.6691
2.50806	18.6704
2.5008	18.6508
2.49358	18.6069
2.4864	18.5861
2.47927	18.5493
2.47218	18.5188
2.46512	18.4025
2.45811	18.4311
2.45114	18.4355
2.4442	18.3793
2.43731	18.3393
2.43045	18.3525
2.42363	18.3251
2.41685	18.2697
2.41011	18.2893
2.40341	18.2346
2.39674	18.1838
2.39011	18.1367
2.38352	18.135
2.37696	18.1223
2.37044	18.0957
2.36395	18.1054
2.35751	18.0468
2.35109	18.0625
2.34471	18.0429
2.33836	17.9834
2.33205	17.9931
2.32578	17.9179
2.31953	17.9409
2.31332	17.9091
2.30714	17.8847
2.301	17.851
2.29489	17.8515
2.28881	17.8007
2.28276	17.8037
2.27675	17.7866
2.27076	17.8144
2.26481	17.7485
2.25889	17.7431
2.253	17.728
2.24714	17.7089
2.24131	17.6816
2.23551	17.6884
2.22974	17.6469
2.224	17.6176
2.21829	17.7226
2.21261	17.6293
2.20696	17.603
2.20134	17.6269
2.19574	17.6191
2.19018	17.624
2.18464	17.5532
2.17913	17.5761
2.17365	17.5415
2.16819	17.5708
2.16277	17.6254
2.15737	17.5268
2.15199	17.4589
2.14665	17.5009
2.14133	17.4609
2.13603	17.4824
2.13077	17.3593
2.12552	17.3935
2.12031	17.4394
2.11512	17.3193
2.10995	17.4047
2.10481	17.3291
2.0997	17.3032
2.09461	17.3422
2.08954	17.3525
2.0845	17.3129
2.07948	17.27
