Name: Olivine (Fo92) (Fe+2,Mg)2SiO4
Type: Mineral
Class: Silicates
Subclass: Nesosilicates (Isolated tetrahedra); (Olivine Group)
Particle Size: Fine  (less than 2  Micrometers)
Sample No.: olivine.11
Owner: JHU
Wavelength Range: IR
Origin: Chavira olivine-peridot mine, near Camargo, Chihuahua,
Description: Sample consisted of many 0.5 cm particles, green in
Measurement: Transmission
X Units: Wavelength (micrometers)
Y Units: Transmittance (percent)
wavelength	value
25.0442	12.1015
24.3388	4.8945
23.6719	2.1289
23.0407	7.125
22.4422	18.9921
21.8741	25.8242
21.334	26.0488
20.8199	32.371
20.33	27.3574
19.8627	7.6875
19.4163	7.7187
18.9896	10.041
18.5812	13.6572
18.19	20.371
17.815	41.3808
17.4551	56.9813
17.1094	62.3631
16.7772	43.4921
16.4576	24.4589
16.15	34.1806
15.8537	55.5721
15.568	69.1717
15.2925	76.1375
15.0265	79.9471
14.7697	81.9158
14.5214	83.0232
14.2814	84.3933
14.0492	85.3142
13.8244	85.3396
13.6067	85.5628
13.3957	84.7537
13.1912	83.7537
12.9929	81.9998
12.8004	78.7386
12.6135	74.2615
12.432	67.7264
12.2557	58.4764
12.0843	42.5643
11.9176	23.4062
11.7555	28.6611
11.5977	16.3051
11.444	5.415
11.2944	1.3008
11.1487	1.6777
11.0067	3.1475
10.8682	4.6582
10.7332	9
10.6015	14.2973
10.473	11.6777
10.3476	20.3134
10.2251	8.4341
10.1056	5.8105
9.98873	7.0937
9.87458	12.9111
9.763	23.1254
9.65392	34.6342
9.54724	44.1146
9.44291	50.7299
9.34082	55.746
9.24091	59.5941
9.14312	62.8563
9.04739	66.7908
8.95363	70.326
8.8618	73.2796
8.77183	75.991
8.68368	78.3177
8.59727	80.1663
8.51257	82.0215
8.42951	83.8369
8.34807	85.5782
8.26819	87.3743
8.18981	88.6524
8.11292	89.9085
8.03745	90.8982
7.96337	91.6904
7.89064	92.2559
7.81924	92.8799
7.74911	93.2852
7.68023	93.7109
7.61256	94.0244
7.54608	94.2988
7.48074	94.6116
7.41653	94.9568
7.35341	95.2637
7.29136	95.4485
7.23034	95.4717
7.17033	95.634
7.11132	95.5957
7.05327	95.5105
6.99616	95.6582
6.93996	95.9395
6.88467	96.2002
6.83024	96.2266
6.77667	96.3938
6.72393	96.5723
6.67201	96.8437
6.62089	97.0369
6.57054	97.3242
6.52095	97.2978
6.4721	97.3572
6.42398	97.4407
6.37657	97.3271
6.32986	97.095
6.28382	96.8799
6.23845	96.7019
6.19373	96.3874
6.14965	95.9568
6.10619	95.7498
6.06334	95.6296
6.02109	95.5613
5.97942	96.1162
5.93832	96.9394
5.89778	97.4219
5.8578	97.7107
5.81835	98.156
5.77943	98.2988
5.74103	98.4309
5.70314	98.2771
5.66574	97.8904
5.62883	97.5759
5.5924	97.8301
5.55644	98.28
5.52093	98.5334
5.48588	98.5225
5.45127	98.4831
5.41709	98.613
5.38334	98.7422
5.35	98.8672
5.31708	98.9211
5.28456	98.9619
5.25243	98.9902
5.2207	98.9199
5.18934	99.0798
5.15836	99.1328
5.12775	99.1699
5.09749	99.2195
5.0676	99.2353
5.03805	99.239
5.00884	99.2148
4.97998	99.1025
4.95144	99.0276
4.92322	99.1184
4.89533	99.2224
4.86775	99.3513
4.84048	99.4431
4.81351	99.4519
4.78684	99.4944
4.76047	99.4954
4.73439	99.4353
4.70859	99.3923
4.68306	99.4304
4.65782	99.3635
4.63284	99.3288
4.60814	99.198
4.58369	99.2424
4.5595	99.2214
4.53557	99.1985
4.51188	99.1687
4.48845	99.1023
4.46525	99.0891
4.44229	98.9788
4.41957	98.9973
4.39708	98.9158
4.37481	98.8728
4.35277	98.8826
4.33096	98.8391
4.30935	98.7703
4.28797	98.758
4.26679	98.7327
4.24583	98.7175
4.22506	98.6135
4.2045	98.6023
4.18414	98.5671
4.16398	98.508
4.14401	98.4612
4.12423	98.4441
4.10464	98.4119
4.08523	98.3738
4.066	98.3601
4.04696	98.2659
4.02809	98.2146
4.0094	98.1526
3.99088	98.0784
3.97253	98.0647
3.95435	98.008
3.93634	97.9358
3.91848	97.9006
3.90079	97.8464
3.88326	97.7654
3.86589	97.6819
3.84867	97.5979
3.8316	97.533
3.81468	97.4807
3.79791	97.3738
3.78129	97.2732
3.76482	97.2463
3.74848	97.1331
3.73229	97.0608
3.71624	96.8933
3.70032	96.8542
3.68454	96.7151
3.6689	96.6111
3.65338	96.4958
3.638	96.4514
3.62275	96.2146
3.60762	96.2126
3.59262	96.0857
3.57775	95.9646
3.56299	95.8538
3.54836	95.7126
3.53385	95.6072
3.51945	95.4866
3.50517	95.197
3.49101	95.1819
3.47696	95.01
3.46303	94.8669
3.4492	94.7581
3.43549	94.574
3.42188	94.3025
3.40838	94.2048
3.39499	94.0608
3.38171	93.9314
3.36852	93.8396
3.35544	93.7444
3.34246	93.5505
3.32958	93.3987
3.3168	93.2522
3.30411	93.0628
3.29153	92.9607
3.27903	92.7346
3.26664	92.4968
3.25433	92.3416
3.24212	92.1013
3.23	91.9744
3.21797	91.6775
3.20603	91.5339
3.19418	91.2273
3.18241	90.9832
3.17074	90.783
3.15914	90.5398
3.14763	90.2302
3.13621	89.9607
3.12487	89.8328
3.11361	89.5359
3.10243	89.325
3.09133	89.0388
3.0803	88.8953
3.06936	88.699
3.0585	88.5515
3.04771	88.2957
3.037	87.9939
3.02636	87.8025
3.0158	87.6531
3.00531	87.3025
2.99489	87.0955
2.98454	86.9148
2.97427	86.574
2.96407	86.4978
2.95393	86.2537
2.94387	86.1912
2.93387	86.2078
2.92394	86.1023
2.91408	86.1717
2.90429	86.3045
2.89456	86.3904
2.88489	86.4881
2.87529	86.5515
2.86576	86.7039
2.85628	86.8718
2.84687	87.3045
2.83752	87.5554
2.82823	87.7937
2.81901	88.2234
2.80984	88.4031
2.80073	88.7351
2.79168	89.1961
2.78269	89.532
2.77376	89.8211
2.76488	90.2849
2.75606	90.9695
2.7473	91.3064
2.73859	91.9451
2.72994	92.2429
2.72134	92.5115
2.7128	92.7615
2.70431	92.8767
2.69587	92.8826
2.68748	92.9802
2.67915	92.9998
2.67087	93.1013
2.66264	92.8298
2.65446	92.6853
2.64633	92.6658
2.63825	92.4627
2.63021	92.5056
2.62223	92.3279
2.6143	92.2791
2.60641	92.3337
2.59857	92.2537
2.59078	92.1521
2.58304	92.2556
2.57534	92.0818
2.56768	91.867
2.56008	91.783
2.55251	91.738
2.54499	91.6912
2.53752	91.5017
2.53009	91.4783
2.5227	91.4236
2.51536	91.1677
2.50806	91.4412
2.5008	91.2595
2.49358	91.0545
2.4864	91.0545
2.47927	90.8377
2.47218	90.8435
2.46512	90.7849
2.45811	90.656
2.45114	90.5427
2.4442	90.5486
2.43731	90.533
2.43045	90.3435
2.42363	90.4783
2.41685	90.3064
2.41011	90.2966
2.40341	90.0076
2.39674	89.7986
2.39011	89.8611
2.38352	89.8064
2.37696	89.6033
2.37044	89.4685
2.36395	89.5388
2.35751	89.2341
2.35109	89.1756
2.34471	89.156
2.33836	89.0466
2.33205	88.9685
2.32578	89.0642
2.31953	88.8552
2.31332	88.9705
2.30714	88.4841
2.301	88.6795
2.29489	88.5857
2.28881	88.367
2.28276	88.0779
2.27675	88.5271
2.27076	88.2146
2.26481	88.1013
2.25889	88.1248
2.253	87.8396
2.24714	87.8006
2.24131	87.7107
2.23551	87.7146
2.22974	87.5974
2.224	87.3084
2.21829	87.1795
2.21261	87.3709
2.20696	87.2498
2.20134	87.0232
2.19574	87.1326
2.19018	87.0115
2.18464	87.0232
2.17913	86.8631
2.17365	86.7263
2.16819	86.5818
2.16277	86.531
2.15737	86.4607
2.15199	86.3513
2.14665	86.0467
2.14133	86.0701
2.13603	85.906
2.13077	85.9138
2.12552	85.8318
2.12031	85.7263
2.11512	85.781
2.10995	85.6482
2.10481	85.5349
2.0997	85.3435
2.09461	85.3513
2.08954	85.2537
2.0845	85.1482
2.07948	85.0623
