Name: Brown to dark brown loamy sand
Type: Soils
Class: Ultisol
Subclass: Hapludult
Particle Size: see additional information
Sample No.: 87P707
Owner: JHU
Origin: Dorchester Co., Md. via USDA Soil Conservation service.
Description: Parent material: alluvium from mixed material.
Measurement: Directional (10 degree) hemispherical reflectance
X Units: Wavelength (micrometers)
Y Units: Reflectance (percent)
wavelength	value
14.011	2.5574
13.715	2.8069
13.43	3.1226
13.158	3.5085
12.896	4.7139
12.644	3.6699
12.402	3.1113
12.169	1.4656
11.945	2.2358
11.729	2.8142
11.52	3.1916
11.319	3.4194
11.125	3.5727
10.937	3.615
10.756	3.8452
10.58	4.0593
10.41	4.3188
10.245	4.5652
10.086	4.897
9.931	5.4553
9.781	6.0879
9.636	7.1543
9.495	8.6667
9.358	13.8327
9.225	16.1765
9.095	16.1352
8.969	15.822
8.847	16.0554
8.727	15.09
8.612	11.5559
8.499	16.0666
8.389	16.8869
8.281	18.5222
8.177	18.998
8.075	12.6596
7.976	7.6625
7.879	4.053
7.784	2.6287
7.692	1.8152
7.601	1.2881
7.513	1.0207
7.427	0.9023
7.343	0.8267
7.261	0.7944
7.18	0.8628
7.102	0.8706
7.025	0.9126
6.949	1.0039
6.875	1.0486
6.803	1.1157
6.733	1.1357
6.663	1.2283
6.596	1.2307
6.529	1.2593
6.464	1.4089
6.4	1.4116
6.338	1.3198
6.276	1.3137
6.216	1.2219
6.157	1.227
6.099	1.3777
6.042	1.3765
5.986	1.4341
5.931	1.4817
5.878	1.6533
5.825	1.9497
5.773	2.2768
5.722	2.6492
5.672	2.6279
5.623	2.3647
5.574	2.3589
5.527	2.5706
5.48	2.866
5.434	2.9597
5.389	2.6284
5.345	2.4121
5.301	2.5322
5.258	2.7502
5.215	3.2217
5.174	3.4036
5.133	3.4319
5.093	3.448
5.053	3.3848
5.014	3.4228
4.975	3.6194
4.937	4.083
4.9	5.4216
4.863	8.8845
4.827	11.4973
4.791	13.3903
4.756	14.8986
4.721	15.5036
4.687	13.3852
4.654	15.4318
4.62	18.2478
4.588	19.3547
4.556	19.0502
4.524	16.1482
4.492	12.5503
4.461	11.9568
4.431	13.4648
4.401	15.2751
4.371	17.9116
4.342	19.9448
4.313	20.0693
4.284	19.5019
4.256	20.5326
4.229	20.4816
4.201	21.0322
4.174	21.7141
4.147	22.2978
4.121	22.9164
4.095	23.7194
4.069	24.2153
4.044	24.1175
4.019	23.8447
3.994	23.8237
3.97	24.06
3.945	24.5174
3.921	24.6323
3.898	24.3818
3.875	23.8454
3.852	23.454
3.829	23.3669
3.806	23.3359
3.784	22.9711
3.762	22.403
3.74	21.935
3.719	21.7612
3.698	21.8426
3.677	21.9409
3.656	21.7629
3.636	21.4252
3.615	20.9299
3.595	20.496
3.575	19.9876
3.556	19.5246
3.536	18.8991
3.517	17.8791
3.498	16.8164
3.479	16.6208
3.461	16.1369
3.442	15.417
3.424	14.0571
3.406	13.9209
3.388	14.0783
3.371	13.9694
3.353	13.9528
3.336	13.7287
3.319	13.3864
3.302	12.9338
3.285	12.4448
3.269	11.9529
3.252	11.5266
3.236	11.0464
3.22	10.7302
3.204	10.2749
3.188	9.9555
3.173	9.5754
3.157	9.2544
3.142	8.8598
3.127	8.6006
3.112	8.3208
3.097	8.1264
3.082	7.9419
3.067	7.7383
3.053	7.5679
3.039	7.4563
3.025	7.3681
3.011	7.2358
2.997	7.1372
2.983	7.0017
2.969	6.8052
2.956	6.7366
2.942	6.7412
2.929	6.7239
2.916	6.6465
2.903	6.4825
2.89	6.6252
2.877	6.9502
2.864	7.3218
2.852	7.4807
2.839	7.4861
2.827	7.7175
2.814	8.1701
2.802	8.2378
2.79	8.3291
2.778	8.0456
2.766	7.0293
2.755	6.5732
2.743	7.7074
2.731	8.8327
2.72	10.2837
2.708	10.6792
2.697	14.6245
2.686	26.538
2.675	32.0419
2.664	34.2094
2.653	36.5504
2.642	37.7274
2.632	37.6955
2.621	37.9427
2.61	38.934
2.6	39.4364
2.59	39.3285
2.579	39.7482
2.569	39.4364
2.559	40.0438
2.549	40.0917
2.539	40.2694
2.529	40.444
2.519	40.4694
2.509	40.4823
2.5	40.6364
2.49	40.6618
2.481	40.9115
2.471	41.1405
2.462	41.2621
2.452	41.4335
2.443	41.6012
2.434	41.8209
2.425	42.15
2.416	42.3966
2.407	42.5025
2.398	42.6972
2.389	42.6461
2.38	42.7287
2.372	42.7887
2.363	42.9288
2.354	42.9694
2.346	42.9967
2.337	43.1889
2.329	43.3151
2.321	43.4017
2.312	43.4401
2.304	43.6268
2.296	43.7819
2.288	43.7987
2.28	43.9096
2.272	43.9962
2.264	44.0519
2.256	44.1046
2.248	44.1215
2.24	44.235
2.233	44.2785
2.225	44.0702
2.217	43.9005
2.21	43.1403
2.202	43.2465
2.195	43.4569
2.187	43.6251
2.18	43.8602
2.173	44.0797
2.166	44.1571
2.158	44.2037
2.151	44.3766
2.144	44.5389
2.137	44.798
2.13	44.7648
2.123	44.8451
2.116	44.7067
2.109	44.7492
2.102	44.7098
2.095	44.7758
2.089	44.7272
2.082	44.8058
2.06	45.0975
2.028	45.3291
1.996	45.0799
1.964	43.5324
1.932	42.7418
1.9	43.0541
1.868	45.9676
1.836	46.6008
1.804	46.478
1.772	46.4976
1.74	46.4446
1.708	46.0896
1.676	45.8448
1.644	45.5785
1.612	45.567
1.58	45.0663
1.548	44.9806
1.516	44.7644
1.484	43.8089
1.452	43.5143
1.42	43.6703
1.388	42.96
1.356	43.6773
1.324	43.5051
1.292	43.5524
1.26	42.279
1.228	41.9203
1.196	41.7491
1.164	41.0825
1.132	40.311
1.1	39.7721
1.068	38.6783
1.036	38.0605
1.004	37.7475
0.972	37.0197
0.94	35.9065
0.908	35.0934
0.876	34.6425
0.844	33.6782
0.812	32.987
0.795	32.2839
0.787	32.1345
0.779	31.7202
0.771	31.3088
0.763	30.9725
0.755	30.6517
0.747	29.7508
0.739	29.7981
0.731	29.2202
0.723	28.6585
0.715	28.1761
0.707	27.7086
0.699	27.707
0.691	26.5933
0.683	25.9188
0.675	25.5301
0.667	25.1957
0.659	24.3068
0.651	24.2385
0.643	23.3912
0.635	22.8078
0.627	22.0819
0.619	21.4706
0.611	21.6477
0.603	20.738
0.595	20.3339
0.587	19.7701
0.579	19.3088
0.571	18.5634
0.563	18.1465
0.555	16.4362
0.547	15.9136
0.539	15.2518
0.531	14.35
0.523	13.8981
0.515	13.1926
0.507	11.9525
0.499	11.2301
0.491	10.4447
0.483	9.6154
0.475	9.0822
0.467	8.1107
0.459	7.7498
0.451	7.1695
0.443	6.6286
0.435	5.8117
0.427	4.7082
0.419	3.8735
0.411	2.9156
0.403	2.3907
