Name: Tourmaline (Schorl) NaFe3+2Al6(BO3)3Si6O18(OH)4
Type: Mineral
Class: Silicates
Subclass: Cycloilicates (Ring Silicates)
Particle Size: Solid (random polished surface)
Sample No.: tourmal.2
Owner: JHU
Wavelength Range: IR
Origin: Minas Gerais, Brazil via the Hunt and Salisbury Collection
Description: The sample was a translucent, blue, single crystal.  It
Measurement: Bidirectional reflectance
X Units: Wavelength (micrometers)
Y Units: Reflectance (percent)
wavelength	value
25.0442	28.9355
24.3388	31.2704
23.6719	34.8222
23.0407	33.0507
22.4422	32.7616
21.8741	30.391
21.334	31.3036
20.8199	34.8407
20.33	39.8559
19.8627	45.4511
19.4163	49.8895
18.9896	50.6368
18.5812	46.4989
18.19	41.4794
17.815	39.7755
17.4551	38.8537
17.1094	42.2406
16.7772	46.87
16.4576	47.1884
16.15	53.9086
15.8537	46.8439
15.568	32.3124
15.2925	29.2148
15.0265	29.453
14.7697	30.1188
14.5214	23.0649
14.2814	21.0722
14.0492	22.4694
13.8244	22.0939
13.6067	20.7812
13.3957	20.1296
13.1912	20.8171
12.9929	21.2504
12.8004	23.1066
12.6135	25.538
12.432	21.3317
12.2557	21.7026
12.0843	22.3315
11.9176	23.0703
11.7555	23.6594
11.5977	23.7402
11.444	24.5161
11.2944	25.5068
11.1487	26.2944
11.0067	27.0969
10.8682	28.1659
10.7332	29.2968
10.6015	30.7592
10.473	32.7709
10.3476	35.6994
10.2251	39.2077
10.1056	42.1122
9.98873	43.1635
9.87458	43.4784
9.763	45.3446
9.65392	46.2826
9.54724	44.2638
9.44291	43.0233
9.34082	44.069
9.24091	37.6176
9.14312	33.8564
9.04739	38.162
8.95363	39.5441
8.8618	39.7147
8.77183	29.457
8.68368	12.8925
8.59727	12.4148
8.51257	15.3242
8.42951	17.6325
8.34807	19.5102
8.26819	21.2563
8.18981	23.0236
8.11292	24.9704
8.03745	26.8022
7.96337	28.9013
7.89064	30.9963
7.81924	31.9819
7.74911	31.799
7.68023	31.4645
7.61256	31.8215
7.54608	33.9418
7.48074	36.028
7.41653	37.6374
7.35341	38.7643
7.29136	37.7685
7.23034	34.2704
7.17033	29.1271
7.11132	22.6147
7.05327	16.9545
6.99616	11.811
6.93996	9.7666
6.88467	11.1745
6.83024	12.4695
6.77667	13.4255
6.72393	14.1821
6.67201	14.7807
6.62089	15.2971
6.57054	15.6731
6.52095	16.1005
6.4721	16.4919
6.42398	16.7536
6.37657	17.0625
6.32986	17.2819
6.28382	17.5236
6.23845	17.7561
6.19373	17.914
6.14965	18.0825
6.10619	18.1843
6.06334	18.3571
6.02109	18.5124
5.97942	18.5754
5.93832	18.5778
5.89778	18.676
5.8578	18.8393
5.81835	18.8605
5.77943	19.0156
5.74103	19.0712
5.70314	19.1491
5.66574	19.2478
5.62883	19.3391
5.5924	19.4204
5.55644	19.4851
5.52093	19.5632
5.48588	19.6274
5.45127	19.7263
5.41709	19.7927
5.38334	19.8745
5.35	19.8916
5.31708	19.9821
5.28456	20.0583
5.25243	20.1274
5.2207	20.174
5.18934	20.2104
5.15836	20.2416
5.12775	20.291
5.09749	20.2973
5.0676	20.3083
5.03805	20.3181
5.00884	20.3166
4.97998	20.32
4.95144	20.3476
4.92322	20.3515
4.89533	20.3566
4.86775	20.3613
4.84048	20.3818
4.81351	20.4116
4.78684	20.4294
4.76047	20.4562
4.73439	20.4775
4.70859	20.5273
4.68306	20.5622
4.65782	20.6025
4.63284	20.6386
4.60814	20.6806
4.58369	20.7172
4.5595	20.7658
4.53557	20.7944
4.51188	20.8034
4.48845	20.8359
4.46525	20.8344
4.44229	20.8564
4.41957	20.8701
4.39708	20.8735
4.37481	20.8952
4.35277	20.904
4.33096	20.8737
4.30935	20.8583
4.28797	20.8642
4.26679	20.872
4.24583	20.8579
4.22506	20.8505
4.2045	20.8715
4.18414	20.8439
4.16398	20.8471
4.14401	20.8505
4.12423	20.8637
4.10464	20.8732
4.08523	20.8684
4.066	20.883
4.04696	20.9081
4.02809	20.9128
4.0094	20.9243
3.99088	20.9379
3.97253	20.9638
3.95435	20.9677
3.93634	20.977
3.91848	20.9995
3.90079	21.0131
3.88326	21.0048
3.86589	21.0009
3.84867	21.0141
3.8316	21.0097
3.81468	21.0063
3.79791	20.9853
3.78129	20.9814
3.76482	20.9814
3.74848	20.9677
3.73229	20.9633
3.71624	20.924
3.70032	20.9123
3.68454	20.9099
3.6689	20.8998
3.65338	20.8769
3.638	20.8569
3.62275	20.8686
3.60762	20.8603
3.59262	20.8583
3.57775	20.8762
3.56299	20.8576
3.54836	20.854
3.53385	20.8955
3.51945	20.8813
3.50517	20.8872
3.49101	20.9189
3.47696	20.9121
3.46303	20.935
3.4492	20.8979
3.43549	20.8969
3.42188	20.9443
3.40838	20.9501
3.39499	20.9174
3.38171	20.8835
3.36852	20.9028
3.35544	20.8779
3.34246	20.8549
3.32958	20.8659
3.3168	20.8305
3.30411	20.8237
3.29153	20.811
3.27903	20.7717
3.26664	20.7792
3.25433	20.7714
3.24212	20.7368
3.23	20.7197
3.21797	20.7189
3.20603	20.7131
3.19418	20.7065
3.18241	20.6769
3.17074	20.6821
3.15914	20.6721
3.14763	20.6684
3.13621	20.663
3.12487	20.6694
3.11361	20.705
3.10243	20.6738
3.09133	20.6738
3.0803	20.6721
3.06936	20.6728
3.0585	20.6652
3.04771	20.6672
3.037	20.673
3.02636	20.6799
3.0158	20.6523
3.00531	20.6398
2.99489	20.6606
2.98454	20.6601
2.97427	20.6174
2.96407	20.6425
2.95393	20.5969
2.94387	20.5839
2.93387	20.5888
2.92394	20.5854
2.91408	20.5947
2.90429	20.6105
2.89456	20.6406
2.88489	20.633
2.87529	20.5793
2.86576	20.5273
2.85628	20.5043
2.84687	20.4882
2.83752	20.5053
2.82823	20.5478
2.81901	20.4855
2.80984	20.3312
2.80073	20.1945
2.79168	20.1799
2.78269	20.2646
2.77376	20.3056
2.76488	20.3388
2.75606	20.3417
2.7473	20.3791
2.73859	20.298
2.72994	20.341
2.72134	20.329
2.7128	20.3701
2.70431	20.3439
2.69587	20.3261
2.68748	20.3603
2.67915	20.3723
2.67087	20.3134
2.66264	20.3627
2.65446	20.3881
2.64633	20.3603
2.63825	20.374
2.63021	20.3334
2.62223	20.3867
2.6143	20.3808
2.60641	20.352
2.59857	20.4467
2.59078	20.4165
2.58304	20.4326
2.57534	20.413
2.56768	20.3906
2.56008	20.4599
2.55251	20.4321
2.54499	20.4589
2.53752	20.517
2.53009	20.4687
2.5227	20.5322
2.51536	20.5175
2.50806	20.5981
2.5008	20.5922
2.49358	20.6113
2.4864	20.6
2.47927	20.6376
2.47218	20.6743
2.46512	20.6801
2.45811	20.7246
2.45114	20.7246
2.4442	20.7812
2.43731	20.7954
2.43045	20.7958
2.42363	20.7597
2.41685	20.7988
2.41011	20.8378
2.40341	20.8681
2.39674	20.8461
2.39011	20.8891
2.38352	20.8935
2.37696	20.8525
2.37044	20.852
2.36395	20.915
2.35751	20.9531
2.35109	20.9433
2.34471	20.9809
2.33836	20.9912
2.33205	21.0117
2.32578	21.0468
2.31953	21.0805
2.31332	21.0864
2.30714	21.1684
2.301	21.1835
2.29489	21.1938
2.28881	21.1992
2.28276	21.1938
2.27675	21.2836
2.27076	21.3027
2.26481	21.2636
2.25889	21.3305
2.253	21.3535
2.24714	21.3945
2.24131	21.4443
2.23551	21.4716
2.22974	21.3915
2.224	21.4531
2.21829	21.456
2.21261	21.4453
2.20696	21.4912
2.20134	21.4824
2.19574	21.4726
2.19018	21.5732
2.18464	21.581
2.17913	21.6093
2.17365	21.5566
2.16819	21.6074
2.16277	21.6679
2.15737	21.6132
2.15199	21.5751
2.14665	21.5908
2.14133	21.6738
2.13603	21.7783
2.13077	21.6367
2.12552	21.6777
2.12031	21.7167
2.11512	21.6962
2.10995	21.6992
2.10481	21.7255
2.0997	21.7255
2.09461	21.8124
2.08954	21.8456
2.0845	21.8476
2.07948	21.8828
