Name: Muscovite KAl2(Si3Al)O10(OH,F)2
Type: Mineral
Class: Silicates
Subclass: Phyllosilicates (Sheet Silicates); (MicaGroup)
Particle Size: Solid (001 face)
Sample No.: muscov.2
Owner: JHU
Wavelength Range: IR
Origin: Fremont Co., Colorado via Hunt and Salisbury Collection #146B
Description: The hand sample appeared to be pure, transparent
Measurement: Bidirectional reflectance
X Units: Wavelength (micrometers)
Y Units: Reflectance (percent)
wavelength	value
25.0442	28.5488
24.3388	31.8593
23.6719	30.4306
23.0407	27.705
22.4422	27.6386
21.8741	31.0517
21.334	37.1981
20.8199	40.9882
20.33	36.102
19.8627	32.5585
19.4163	33.2914
18.9896	41.5106
18.5812	48.035
18.19	46.8246
17.815	43.3168
17.4551	38.6144
17.1094	36.4335
16.7772	30.6503
16.4576	21.4609
16.15	15.0859
15.8537	11.2209
15.568	8.3847
15.2925	7.677
15.0265	8.334
14.7697	9.1006
14.5214	9.3896
14.2814	9.6294
14.0492	10.3393
13.8244	11.0874
13.6067	11.7981
13.3957	12.0293
13.1912	11.008
12.9929	10.8198
12.8004	11.8095
12.6135	12.6079
12.432	12.5329
12.2557	13.0153
12.0843	13.8808
11.9176	14.4677
11.7555	15.7353
11.5977	16.8286
11.444	17.622
11.2944	18.206
11.1487	18.9309
11.0067	19.7763
10.8682	19.3706
10.7332	18.685
10.6015	19.374
10.473	22.2812
10.3476	26.4955
10.2251	31.1796
10.1056	34.6161
9.98873	37.3373
9.87458	40.2042
9.763	45.1805
9.65392	55.3822
9.54724	55.3255
9.44291	40.3676
9.34082	39.7304
9.24091	45.0385
9.14312	48.5433
9.04739	48.9845
8.95363	47.9003
8.8618	45.2452
8.77183	41.1332
8.68368	35.4709
8.59727	29.8581
8.51257	23.7739
8.42951	16.7302
8.34807	9.5246
8.26819	3.7917
8.18981	1.7764
8.11292	1.9851
8.03745	2.5439
7.96337	3.1118
7.89064	3.6516
7.81924	4.1304
7.74911	4.5405
7.68023	4.9194
7.61256	5.312
7.54608	5.7178
7.48074	6.1052
7.41653	6.4748
7.35341	6.8064
7.29136	7.0747
7.23034	7.2969
7.17033	7.5014
7.11132	7.7117
7.05327	7.9512
6.99616	8.2273
6.93996	8.5241
6.88467	8.8635
6.83024	9.2141
6.77667	9.5674
6.72393	9.9062
6.67201	10.2251
6.62089	10.5185
6.57054	10.8047
6.52095	11.0222
6.4721	11.176
6.42398	11.3039
6.37657	11.4463
6.32986	11.614
6.28382	11.7375
6.23845	11.7339
6.19373	11.603
6.14965	11.4165
6.10619	11.2629
6.06334	11.1526
6.02109	11.0781
5.97942	11.039
5.93832	11.0361
5.89778	11.0659
5.8578	11.1186
5.81835	11.1582
5.77943	11.1386
5.74103	11.0761
5.70314	11.0437
5.66574	11.0368
5.62883	11.0495
5.5924	11.0976
5.55644	11.1806
5.52093	11.2903
5.48588	11.4331
5.45127	11.6321
5.41709	11.9082
5.38334	12.2019
5.35	12.5036
5.31708	12.8735
5.28456	13.3664
5.25243	14.0085
5.2207	14.7695
5.18934	15.7097
5.15836	16.9406
5.12775	18.3061
5.09749	19.3256
5.0676	19.7741
5.03805	19.8459
5.00884	19.6879
4.97998	19.424
4.95144	19.1948
4.92322	19.1547
4.89533	19.3361
4.86775	19.5498
4.84048	19.6777
4.81351	19.7629
4.78684	20.0085
4.76047	20.4819
4.73439	21.0422
4.70859	21.6069
4.68306	22.2402
4.65782	23.0244
4.63284	23.9474
4.60814	24.8588
4.58369	25.6052
4.5595	26.2485
4.53557	26.8774
4.51188	27.5251
4.48845	28.2038
4.46525	28.9164
4.44229	29.6633
4.41957	30.3652
4.39708	30.9443
4.37481	31.3554
4.35277	31.5817
4.33096	31.7233
4.30935	31.7089
4.28797	31.6305
4.26679	31.7243
4.24583	31.8688
4.22506	32.0133
4.2045	32.1579
4.18414	32.2558
4.16398	32.2931
4.14401	32.3207
4.12423	32.3559
4.10464	32.3827
4.08523	32.403
4.066	32.4311
4.04696	32.4521
4.02809	32.4828
4.0094	32.5336
3.99088	32.5959
3.97253	32.6816
3.95435	32.7753
3.93634	32.852
3.91848	32.9257
3.90079	32.985
3.88326	33.0268
3.86589	33.0617
3.84867	33.0881
3.8316	33.1047
3.81468	33.09
3.79791	33.0253
3.78129	32.8732
3.76482	32.6142
3.74848	32.2902
3.73229	32.059
3.71624	31.9701
3.70032	32.0014
3.68454	32.1186
3.6689	32.299
3.65338	32.557
3.638	32.8935
3.62275	33.2387
3.60762	33.5307
3.59262	33.7213
3.57775	33.8388
3.56299	33.9218
3.54836	33.9623
3.53385	33.9892
3.51945	33.9335
3.50517	33.7377
3.49101	33.8847
3.47696	33.9142
3.46303	33.8876
3.4492	33.8012
3.43549	33.6313
3.42188	33.3915
3.40838	33.5463
3.39499	33.6591
3.38171	33.6342
3.36852	33.715
3.35544	33.7524
3.34246	33.7231
3.32958	33.7177
3.3168	33.747
3.30411	33.7616
3.29153	33.746
3.27903	33.6994
3.26664	33.6308
3.25433	33.5302
3.24212	33.4032
3.23	33.2675
3.21797	33.1161
3.20603	32.9985
3.19418	32.9228
3.18241	32.8559
3.17074	32.7983
3.15914	32.725
3.14763	32.6147
3.13621	32.4731
3.12487	32.3334
3.11361	32.227
3.10243	32.1632
3.09133	32.0961
3.0803	32.0102
3.06936	31.8976
3.0585	31.7704
3.04771	31.6596
3.037	31.5788
3.02636	31.5346
3.0158	31.498
3.00531	31.4262
2.99489	31.2572
2.98454	30.9667
2.97427	30.5656
2.96407	30.0317
2.95393	29.3798
2.94387	28.6047
2.93387	27.7765
2.92394	27.0051
2.91408	26.4118
2.90429	26.0622
2.89456	25.9243
2.88489	25.7966
2.87529	25.7289
2.86576	25.7133
2.85628	25.2065
2.84687	23.8398
2.83752	21.5019
2.82823	18.195
2.81901	15.1811
2.80984	13.789
2.80073	13.2756
2.79168	12.9035
2.78269	12.6299
2.77376	12.4367
2.76488	12.208
2.75606	11.894
2.7473	11.7959
2.73859	11.8979
2.72994	12.372
2.72134	14.1587
2.7128	20.8276
2.70431	25.0637
2.69587	26.5702
2.68748	27.4736
2.67915	28.268
2.67087	29.0898
2.66264	29.8215
2.65446	30.3031
2.64633	30.4789
2.63825	30.4103
2.63021	30.227
2.62223	30.0373
2.6143	29.9164
2.60641	29.8349
2.59857	29.8283
2.59078	29.831
2.58304	29.842
2.57534	29.8964
2.56768	30.0556
2.56008	30.2016
2.55251	30.2353
2.54499	30.1723
2.53752	30.007
2.53009	29.8173
2.5227	29.5871
2.51536	29.3527
2.50806	29.1205
2.5008	28.8898
2.49358	28.6847
2.4864	28.467
2.47927	28.186
2.47218	27.841
2.46512	27.4208
2.45811	27.0021
2.45114	26.6896
2.4442	26.54
2.43731	26.6152
2.43045	26.9426
2.42363	27.34
2.41685	27.7118
2.41011	27.9872
2.40341	28.0702
2.39674	27.9162
2.39011	27.6513
2.38352	27.4384
2.37696	27.3974
2.37044	27.3986
2.36395	27.3351
2.35751	27.1464
2.35109	27.0468
2.34471	27.2963
2.33836	27.871
2.33205	28.5773
2.32578	29.2775
2.31953	29.9445
2.31332	30.5754
2.30714	31.1242
2.301	31.5121
2.29489	31.7299
2.28881	31.7699
2.28276	31.6913
2.27675	31.5653
2.27076	31.3559
2.26481	30.9277
2.25889	30.1269
2.253	28.9286
2.24714	27.7714
2.24131	27.0019
2.23551	26.5771
2.22974	25.9892
2.224	24.6542
2.21829	22.9731
2.21261	21.8051
2.20696	21.4741
2.20134	22.0283
2.19574	23.4726
2.19018	25.6596
2.18464	27.954
2.17913	29.7192
2.17365	30.8915
2.16819	31.622
2.16277	32.0907
2.15737	32.4145
2.15199	32.6313
2.14665	32.7753
2.14133	32.8446
2.13603	32.8857
2.13077	32.8778
2.12552	32.8813
2.12031	32.9413
2.11512	33.0751
2.10995	33.2406
2.10481	33.3778
2.0997	33.5312
2.09461	33.6523
2.08954	33.7607
2.0845	33.8407
2.07948	33.8617
