Name: Mordenite (Ca,Na2,K2)Al2Si10O24.7H2O
Type: Mineral
Class: Silicates
Subclass: Tectosilicates (Framework Silicates); (ZeoliteGroup)
Particle Size: Course  (75-250  Micrometers)
Sample No.: morden.1
Owner: JHU
Wavelength Range: IR
Origin: Union Pass, Arizona via W. J. Ehmann #10
Description: The sample consisted of small transparent crystals of
Measurement: Bidirectional reflectance
X Units: Wavelength (micrometers)
Y Units: Reflectance (percent)
wavelength	value
25.044	1.6777
24.339	1.7607
23.672	1.8618
23.041	1.9504
22.442	2.0019
21.874	2.0547
21.334	2.146
20.82	1.8579
20.33	1.2529
19.863	0.8645
19.416	0.7971
18.99	0.8196
18.581	0.7964
18.19	0.7576
17.815	0.6843
17.455	0.6414
17.109	0.5803
16.777	0.5488
16.458	0.5393
16.15	0.5115
15.854	0.4714
15.568	0.4187
15.292	0.4126
15.027	0.4429
14.77	0.4766
14.521	0.4973
14.281	0.5256
14.049	0.5342
13.824	0.5344
13.607	0.5249
13.396	0.5364
13.191	0.5547
12.993	0.5776
12.8	0.5828
12.614	0.5754
12.432	0.5591
12.256	0.571
12.084	0.6418
11.918	0.7471
11.755	0.8191
11.598	0.8535
11.444	0.8708
11.294	0.9092
11.149	0.9487
11.007	0.9841
10.868	1.0247
10.733	1.073
10.602	1.1331
10.473	1.2036
10.348	1.2891
10.225	1.3889
10.106	1.5095
9.989	1.6475
9.875	1.7978
9.763	1.9507
9.654	2.105
9.547	2.2507
9.443	2.3677
9.341	2.4287
9.241	2.5273
9.143	2.5747
9.047	2.4402
8.954	2.1753
8.862	1.938
8.772	1.8162
8.684	1.7405
8.597	1.6702
8.513	1.6064
8.43	1.5488
8.348	1.4819
8.268	1.4297
8.19	1.4773
8.113	1.667
8.037	1.7888
7.963	1.4631
7.891	0.8984
7.819	0.4663
7.749	0.25
7.68	0.1748
7.613	0.1592
7.546	0.1685
7.481	0.1934
7.417	0.2263
7.353	0.2664
7.291	0.311
7.23	0.3574
7.17	0.4062
7.111	0.4536
7.053	0.4985
6.996	0.5388
6.94	0.5752
6.885	0.6111
6.83	0.6511
6.777	0.6973
6.724	0.7415
6.672	0.781
6.621	0.8184
6.571	0.8508
6.521	0.8726
6.472	0.8757
6.424	0.8477
6.377	0.7891
6.33	0.6919
6.284	0.5671
6.238	0.449
6.194	0.3672
6.15	0.3276
6.106	0.3071
6.063	0.3074
6.021	0.3274
5.979	0.3916
5.938	0.5395
5.898	0.7693
5.858	1.0203
5.818	1.2165
5.779	1.3469
5.741	1.4231
5.703	1.4604
5.666	1.4709
5.629	1.4651
5.592	1.4436
5.556	1.4189
5.521	1.4167
5.486	1.4136
5.451	1.4253
5.417	1.4536
5.383	1.498
5.35	1.5625
5.317	1.6682
5.285	1.8
5.252	1.9258
5.221	2.0271
5.189	2.0952
5.158	2.1504
5.128	2.2136
5.097	2.2964
5.068	2.4058
5.038	2.5425
5.009	2.7092
4.98	2.8982
4.951	3.1155
4.923	3.365
4.895	3.6172
4.868	3.8384
4.84	4.0132
4.814	4.1352
4.787	4.2178
4.76	4.2754
4.734	4.3171
4.709	4.3462
4.683	4.3664
4.658	4.384
4.633	4.4038
4.608	4.4289
4.584	4.4624
4.56	4.5112
4.536	4.5766
4.512	4.6621
4.488	4.7693
4.465	4.8974
4.442	5.0464
4.42	5.2153
4.397	5.406
4.375	5.6201
4.353	5.8515
4.331	6.0945
4.309	6.3435
4.288	6.5947
4.267	6.8345
4.246	7.103
4.225	7.3545
4.205	7.6008
4.184	7.8408
4.164	8.0715
4.144	8.2942
4.124	8.5068
4.105	8.7082
4.085	8.9033
4.066	9.0859
4.047	9.2419
4.028	9.3606
4.009	9.4345
3.991	9.4629
3.973	9.5251
3.954	9.6147
3.936	9.6992
3.918	9.7324
3.901	9.74
3.883	9.7302
3.866	9.7007
3.849	9.6567
3.832	9.6013
3.815	9.5305
3.798	9.4414
3.781	9.3318
3.765	9.2046
3.748	9.0657
3.732	8.9179
3.716	8.7585
3.7	8.5876
3.685	8.4033
3.669	8.2119
3.653	8.0158
3.638	7.8125
3.623	7.5984
3.608	7.3733
3.593	7.1411
3.578	6.8962
3.563	6.6433
3.548	6.3767
3.534	6.0832
3.519	5.7617
3.505	5.4492
3.491	5.2163
3.477	4.9883
3.463	4.7585
3.449	4.4863
3.435	4.2009
3.422	3.9045
3.408	3.6587
3.395	3.459
3.382	3.2346
3.369	3.0337
3.355	2.8452
3.342	2.6592
3.33	2.4739
3.317	2.2966
3.304	2.1316
3.292	1.9775
3.279	1.8374
3.267	1.7087
3.254	1.5889
3.242	1.4807
3.23	1.3806
3.218	1.292
3.206	1.2117
3.194	1.1379
3.182	1.0728
3.171	1.0149
3.159	0.9622
3.148	0.9165
3.136	0.8765
3.125	0.8425
3.114	0.812
3.102	0.7883
3.091	0.771
3.08	0.7561
3.069	0.748
3.058	0.7444
3.048	0.7419
3.037	0.7383
3.026	0.7327
3.016	0.7246
3.005	0.7134
2.995	0.7041
2.985	0.6934
2.974	0.6836
2.964	0.6765
2.954	0.6685
2.944	0.6626
2.934	0.6606
2.924	0.6553
2.914	0.655
2.904	0.6531
2.895	0.6514
2.885	0.6494
2.875	0.6479
2.866	0.6475
2.856	0.6445
2.847	0.6411
2.838	0.6362
2.828	0.6306
2.819	0.623
2.81	0.614
2.801	0.6038
2.792	0.5928
2.783	0.5847
2.774	0.5791
2.765	0.5771
2.756	0.5786
2.747	0.592
2.739	0.6196
2.73	0.6794
2.721	0.8159
2.713	1.1301
2.704	1.6345
2.696	2.1931
2.687	2.761
2.679	3.2532
2.671	3.8765
2.663	4.5989
2.654	5.0073
2.646	5.3335
2.638	5.602
2.63	5.8179
2.622	5.9895
2.614	6.126
2.606	6.2334
2.599	6.3218
2.591	6.3916
2.583	6.4534
2.575	6.509
2.568	6.5671
2.56	6.6279
2.553	6.7073
2.545	6.8061
2.538	6.9165
2.53	7.043
2.523	7.1782
2.515	7.3154
2.508	7.4604
2.501	7.6079
2.494	7.7549
2.486	7.8977
2.479	8.0449
2.472	8.1931
2.465	8.3498
2.458	8.5198
2.451	8.6975
2.444	8.8926
2.437	9.1081
2.43	9.3559
2.424	9.624
2.417	9.9089
2.41	10.2068
2.403	10.5046
2.397	10.8
2.39	11.0884
2.384	11.3664
2.377	11.6382
2.37	11.9101
2.364	12.1689
2.358	12.4055
2.351	12.622
2.345	12.8227
2.338	13.0224
2.332	13.2241
2.326	13.4018
2.32	13.5529
2.313	13.6797
2.307	13.7768
2.301	13.8654
2.295	13.9394
2.289	13.9975
2.283	14.0537
2.277	14.0771
2.271	14.0715
2.265	14.0434
2.259	14.0212
2.253	14.0014
2.247	14.0019
2.241	14.0063
2.236	14.0036
2.23	13.9917
2.224	13.9909
2.218	14.0056
2.213	14.0334
2.207	14.0874
2.201	14.1545
2.196	14.2255
2.19	14.2876
2.185	14.3745
2.179	14.5009
2.174	14.6445
2.168	14.7797
2.163	14.8979
2.157	14.9768
2.152	15.0339
2.147	15.0661
2.141	15.0869
2.136	15.0974
2.131	15.0886
2.126	15.0854
2.12	15.0686
2.115	15.051
2.11	15.0214
2.105	15.0004
2.1	14.977
2.095	14.957
2.09	14.9336
2.085	14.9145
2.079	14.8938
