Name: Dark reddish brown fine sandy loam
Type: Soils
Class: Alfisol
Subclass: Paleustalf
Particle Size: see additional information
Sample No.: 87P473
Owner: JHU
Origin: Nacogdoches Co., Tx. via USDA Soil Conservation service.
Description: from upland slope incoastal plains.  Dark reddish brown
Measurement: Directional (10 degree) hemispherical reflectance
X Units: Wavelength (micrometers)
Y Units: Reflectance (percent)
wavelength	value
14.0112	2.4206
13.7147	2.883
13.4304	2.8828
13.1578	3.1931
12.8959	4.5454
12.6443	3.5596
12.4023	3.0862
12.1694	1.2495
11.945	2.0781
11.7289	2.6872
11.5203	2.9463
11.3191	3.1921
11.1248	3.2576
10.937	3.3015
10.7555	3.3926
10.5799	3.5461
10.4099	3.7327
10.2454	3.979
10.0859	4.3354
9.9313	5.1179
9.7814	5.4597
9.636	6.894
9.4948	8.8039
9.3577	14.6269
9.2245	17.1925
9.095	17.0009
8.9691	16.7614
8.8467	17.238
8.7275	16.1169
8.6116	11.8562
8.4986	17.4697
8.3886	18.6855
8.2814	19.3247
8.1769	18.3049
8.075	11.8181
7.9756	7.2065
7.8786	4.0742
7.784	2.7515
7.6916	2.0684
7.6014	1.5874
7.5133	1.3479
7.4272	1.1916
7.343	1.1453
7.2607	1.1064
7.1803	1.1748
7.1016	1.2183
7.0246	1.2798
6.9493	1.4123
6.8755	1.4768
6.8034	1.5818
6.7327	1.5911
6.6634	1.6372
6.5956	1.5271
6.5292	1.5373
6.464	1.9995
6.4002	2.0183
6.3376	1.6702
6.2762	1.3694
6.216	1.2141
6.157	1.3179
6.099	1.6277
6.0421	1.7104
5.9863	1.6558
5.9315	1.5977
5.8777	2.228
5.8249	3.0703
5.773	3.9936
5.722	5.0098
5.6719	4.8508
5.6227	3.4753
5.5744	3.2668
5.5268	3.8498
5.4801	4.8786
5.4341	5.0417
5.3889	3.2385
5.3445	2.6113
5.3008	2.8384
5.2578	3.4766
5.2154	5.1748
5.1738	5.5784
5.1328	5.3235
5.0925	5.083
5.0528	4.6763
5.0137	4.6465
4.9752	5.2969
4.9373	7.0036
4.9	10.2705
4.8632	15.4397
4.827	18.1091
4.7913	19.8015
4.7561	20.937
4.7215	21.4169
4.6873	19.7988
4.6536	21.4902
4.6205	23.3759
4.5877	24.0871
4.5555	23.9345
4.5237	22.0314
4.4923	19.1521
4.4614	18.6096
4.4309	19.9392
4.4008	21.2939
4.3711	23.1162
4.3418	24.3613
4.3129	24.4787
4.2844	23.8891
4.2563	24.3415
4.2285	24.3098
4.2011	24.5502
4.174	24.8295
4.1473	25.0363
4.1209	25.2206
4.0949	25.3444
4.0692	25.4033
4.0438	25.1845
4.0187	24.8559
3.994	24.6784
3.9695	24.5295
3.9453	24.4719
3.9214	24.3107
3.8979	23.9318
3.8746	23.4186
3.8515	22.9675
3.8288	22.6047
3.8063	22.2225
3.7841	21.7714
3.7621	21.1828
3.7404	20.6442
3.7189	20.2128
3.6977	19.9252
3.6767	19.5507
3.656	19.1389
3.6355	18.6845
3.6152	18.1977
3.5951	17.642
3.5753	17.1355
3.5557	16.6171
3.5363	15.9323
3.5171	14.947
3.4981	14.0234
3.4793	13.6925
3.4607	13.2761
3.4423	12.6455
3.4241	11.5302
3.4061	11.5261
3.3883	11.5984
3.3707	11.5359
3.3533	11.4243
3.336	11.2632
3.3189	10.9033
3.302	10.4836
3.2853	9.9885
3.2687	9.5547
3.2523	9.135
3.2361	8.7165
3.22	8.4382
3.2041	8.1452
3.1883	7.8633
3.1727	7.6335
3.1572	7.4265
3.1419	7.1802
3.1268	7.0478
3.1117	6.8965
3.0969	6.8066
3.0821	6.7402
3.0675	6.6609
3.0531	6.5603
3.0388	6.4939
3.0246	6.4724
3.0105	6.3965
2.9966	6.4223
2.9828	6.3113
2.9692	6.2698
2.9556	6.2065
2.9422	6.2558
2.9289	6.2864
2.9157	6.3266
2.9027	6.3623
2.8897	6.5624
2.8769	6.6782
2.8642	6.8384
2.8516	7.0486
2.8391	7.2309
2.8267	7.3806
2.8144	7.6169
2.8022	7.7234
2.7902	7.7607
2.7782	7.3642
2.7664	6.3862
2.7546	5.6992
2.7429	6.4697
2.7314	7.0488
2.7199	8.3672
2.7085	7.8142
2.6973	9.3596
2.6861	21.6059
2.675	29.7807
2.664	33.5158
2.6531	36.444
2.6423	38.1352
2.6315	38.653
2.6209	39.1894
2.6103	40.3163
2.5999	40.7851
2.5895	40.8209
2.5792	41.3654
2.569	41.2142
2.5588	41.9224
2.5487	42.15
2.5388	42.1603
2.5289	42.2985
2.519	42.4071
2.5093	42.4743
2.4996	42.7091
2.49	42.891
2.4805	43.1251
2.471	43.5548
2.4616	43.828
2.4523	44.3297
2.4431	44.6564
2.4339	45.1075
2.4248	45.6671
2.4157	46.1283
2.4068	46.3526
2.3979	46.5825
2.389	46.5663
2.3802	46.7255
2.3715	47.0201
2.3629	47.1857
2.3543	47.222
2.3458	47.3817
2.3373	47.746
2.3289	47.9713
2.3206	47.9948
2.3123	47.9545
2.3041	48.2587
2.2959	48.5138
2.2878	48.777
2.2798	48.921
2.2718	49.038
2.2638	49.254
2.2559	49.462
2.2481	49.6344
2.2403	49.8214
2.2326	49.995
2.225	49.6569
2.2173	49.0966
2.2098	47.5751
2.2023	47.8585
2.1948	48.4132
2.1874	48.5531
2.18	48.7015
2.1727	48.9537
2.1655	49.3094
2.1583	49.4481
2.1511	50.0004
2.144	50.2078
2.1369	50.5176
2.1299	50.5533
2.1229	50.722
2.116	50.6688
2.1091	50.6368
2.1023	50.7576
2.0955	50.7345
2.0887	50.5638
2.082	50.7311
2.06	49.9908
2.028	49.6752
1.996	48.7607
1.964	46.4275
1.932	44.6075
1.9	46.1306
1.868	51.4375
1.836	52.6794
1.804	52.1431
1.772	52.3293
1.74	52.4342
1.708	52.0611
1.676	51.9873
1.644	52.4646
1.612	51.941
1.58	52.4223
1.548	51.8508
1.516	51.5067
1.484	50.5759
1.452	50.1429
1.42	49.846
1.388	50.1412
1.356	51.0059
1.324	51.3343
1.292	50.5863
1.26	50.0736
1.228	48.6128
1.196	47.2421
1.164	45.8755
1.132	44.6959
1.1	43.8599
1.068	42.7511
1.036	40.9356
1.004	40.0404
0.972	38.6317
0.94	37.4515
0.908	36.5155
0.876	35.9351
0.844	36.1046
0.812	36.1594
0.795	35.9216
0.787	35.6329
0.779	35.8665
0.771	35.7471
0.763	35.2006
0.755	34.8799
0.747	34.5193
0.739	34.17
0.731	33.575
0.723	32.6722
0.715	31.9922
0.707	31.5943
0.699	30.7759
0.691	30.3209
0.683	29.5939
0.675	28.6084
0.667	27.8209
0.659	27.7572
0.651	26.8671
0.643	26.0909
0.635	26.2668
0.627	25.3982
0.619	24.7105
0.611	24.0493
0.603	22.8792
0.595	22.2142
0.587	21.2172
0.579	19.7734
0.571	18.1724
0.563	16.5146
0.555	15.183
0.547	14.0855
0.539	13.2393
0.531	12.3404
0.523	11.8206
0.515	11.5049
0.507	11.0667
0.499	10.5538
0.491	10.3806
0.483	10.1519
0.475	9.6819
0.467	9.6804
0.459	9.4467
0.451	9.1297
0.443	8.8959
0.435	8.558
0.427	8.1837
0.419	7.7816
0.411	7.4285
0.403	7.1988
