Name: Topaz Al2SiO4(F,OH)2
Type: Mineral
Class: Silicates
Subclass: Nesosilicates (Isolated tetrahedra)
Particle Size: Solid (random polished surface)
Sample No.: topaz.2
Owner: JHU
Wavelength Range: IR
Origin: Ouro Preto, Brazil via Don Hoover, USGS
Description: The sample consisted of several orange-colored, rounded
Measurement: Bidirectional reflectance
X Units: Wavelength (micrometers)
Y Units: Reflectance (percent)
wavelength	value
25.0442	26.6318
24.3388	25.0058
23.6719	27.7887
23.0407	35.6498
22.4422	45.8554
21.8741	53.0738
21.334	40.6669
20.8199	37.5336
20.33	33.9931
19.8627	32.9277
19.4163	28.1069
18.9896	26.6552
18.5812	30.8398
18.19	32.9562
17.815	19.029
17.4551	11.8737
17.1094	15.1672
16.7772	21.1748
16.4576	31.571
16.15	41.0182
15.8537	44.6271
15.568	43.4359
15.2925	38.1437
15.0265	27.2138
14.7697	14.0966
14.5214	6.989
14.2814	5.5876
14.0492	2.8579
13.8244	4.3533
13.6067	6.2466
13.3957	7.8342
13.1912	9.1089
12.9929	9.6433
12.8004	10.6189
12.6135	12.749
12.432	15.1032
12.2557	18.1914
12.0843	22.7883
11.9176	29.2807
11.7555	35.6693
11.5977	41.6334
11.444	47.5375
11.2944	50.6634
11.1487	51.6886
11.0067	51.2086
10.8682	51.7577
10.7332	54.8436
10.6015	56.6283
10.473	55.2943
10.3476	48.3661
10.2251	36.3756
10.1056	38.1107
9.98873	39.8473
9.87458	34.8844
9.763	30.7343
9.65392	29.155
9.54724	26.1364
9.44291	19.6726
9.34082	12.0879
9.24091	5.2075
9.14312	1.2517
9.04739	0.4517
8.95363	0.9414
8.8618	1.8262
8.77183	3.4656
8.68368	6.7002
8.59727	9.9262
8.51257	11.0371
8.42951	5.6518
8.34807	1.2932
8.26819	0.7219
8.18981	0.8437
8.11292	1.1396
8.03745	1.4136
7.96337	1.6631
7.89064	1.8882
7.81924	2.0911
7.74911	2.272
7.68023	2.4326
7.61256	2.5798
7.54608	2.7261
7.48074	2.8645
7.41653	3.0051
7.35341	3.1311
7.29136	3.2512
7.23034	3.3479
7.17033	3.4248
7.11132	3.5391
7.05327	3.6252
6.99616	3.729
6.93996	3.8318
6.88467	3.9116
6.83024	3.991
6.77667	3.9768
6.72393	4.0452
6.67201	4.0898
6.62089	4.1357
6.57054	4.1958
6.52095	4.2661
6.4721	4.3152
6.42398	4.3467
6.37657	4.4612
6.32986	4.5359
6.28382	4.6228
6.23845	4.6716
6.19373	4.6843
6.14965	4.7349
6.10619	4.7666
6.06334	4.7612
6.02109	4.8603
5.97942	4.884
5.93832	4.8955
5.89778	4.918
5.8578	5.022
5.81835	5.062
5.77943	5.1736
5.74103	5.3765
5.70314	5.2744
5.66574	5.124
5.62883	5.1343
5.5924	5.1645
5.55644	5.1855
5.52093	5.2187
5.48588	5.2327
5.45127	5.2524
5.41709	5.2649
5.38334	5.3059
5.35	5.3164
5.31708	5.3562
5.28456	5.3806
5.25243	5.4148
5.2207	5.4372
5.18934	5.4704
5.15836	5.4963
5.12775	5.5215
5.09749	5.5442
5.0676	5.5627
5.03805	5.5781
5.00884	5.594
4.97998	5.6108
4.95144	5.6267
4.92322	5.6452
4.89533	5.6621
4.86775	5.6819
4.84048	5.7002
4.81351	5.7222
4.78684	5.7424
4.76047	5.7632
4.73439	5.7798
4.70859	5.7932
4.68306	5.8078
4.65782	5.8237
4.63284	5.8386
4.60814	5.852
4.58369	5.8638
4.5595	5.8745
4.53557	5.886
4.51188	5.8979
4.48845	5.9097
4.46525	5.9221
4.44229	5.9348
4.41957	5.946
4.39708	5.9568
4.37481	5.9663
4.35277	5.9756
4.33096	5.9848
4.30935	5.9966
4.28797	6.0061
4.26679	6.0154
4.24583	6.0246
4.22506	6.0337
4.2045	6.043
4.18414	6.0525
4.16398	6.0637
4.14401	6.0727
4.12423	6.0849
4.10464	6.0976
4.08523	6.1047
4.066	6.1055
4.04696	6.1006
4.02809	6.0954
4.0094	6.0928
3.99088	6.0957
3.97253	6.1059
3.95435	6.1235
3.93634	6.1438
3.91848	6.1628
3.90079	6.1809
3.88326	6.1963
3.86589	6.208
3.84867	6.2168
3.8316	6.2226
3.81468	6.2253
3.79791	6.2265
3.78129	6.2253
3.76482	6.2231
3.74848	6.2214
3.73229	6.2175
3.71624	6.2165
3.70032	6.2195
3.68454	6.2243
3.6689	6.2314
3.65338	6.241
3.638	6.2536
3.62275	6.2673
3.60762	6.2798
3.59262	6.2947
3.57775	6.312
3.56299	6.3325
3.54836	6.3633
3.53385	6.3804
3.51945	6.3721
3.50517	6.365
3.49101	6.3579
3.47696	6.3506
3.46303	6.3437
3.4492	6.3364
3.43549	6.3293
3.42188	6.3222
3.40838	6.3149
3.39499	6.3081
3.38171	6.3008
3.36852	6.2937
3.35544	6.2866
3.34246	6.2722
3.32958	6.2756
3.3168	6.2754
3.30411	6.2612
3.29153	6.2605
3.27903	6.2668
3.26664	6.2746
3.25433	6.2817
3.24212	6.2888
3.23	6.2978
3.21797	6.3074
3.20603	6.3152
3.19418	6.3232
3.18241	6.3308
3.17074	6.3369
3.15914	6.3401
3.14763	6.343
3.13621	6.3437
3.12487	6.3437
3.11361	6.3396
3.10243	6.3347
3.09133	6.3293
3.0803	6.3222
3.06936	6.3152
3.0585	6.3052
3.04771	6.2969
3.037	6.2888
3.02636	6.2859
3.0158	6.2886
3.00531	6.2954
2.99489	6.3054
2.98454	6.3147
2.97427	6.3218
2.96407	6.3293
2.95393	6.3357
2.94387	6.3403
2.93387	6.3462
2.92394	6.3484
2.91408	6.353
2.90429	6.3469
2.89456	6.3457
2.88489	6.3423
2.87529	6.3323
2.86576	6.3218
2.85628	6.3113
2.84687	6.3069
2.83752	6.2954
2.82823	6.2942
2.81901	6.2795
2.80984	6.2783
2.80073	6.2744
2.79168	6.2964
2.78269	6.3198
2.77376	6.3696
2.76488	6.4612
2.75606	6.4692
2.7473	6.0779
2.73859	5.5176
2.72994	5.8577
2.72134	5.9746
2.7128	6.074
2.70431	6.1379
2.69587	6.136
2.68748	6.1716
2.67915	6.1435
2.67087	6.0881
2.66264	6.1379
2.65446	6.1868
2.64633	6.1911
2.63825	6.1938
2.63021	6.1255
2.62223	6.1267
2.6143	6.126
2.60641	6.095
2.59857	6.0867
2.59078	6.0849
2.58304	6.1084
2.57534	6.1274
2.56768	6.1382
2.56008	6.1452
2.55251	6.1733
2.54499	6.1799
2.53752	6.1894
2.53009	6.1958
2.5227	6.2031
2.51536	6.2051
2.50806	6.208
2.5008	6.2092
2.49358	6.2087
2.4864	6.208
2.47927	6.2041
2.47218	6.1975
2.46512	6.1919
2.45811	6.1841
2.45114	6.1723
2.4442	6.1606
2.43731	6.1482
2.43045	6.1384
2.42363	6.1274
2.41685	6.1221
2.41011	6.1225
2.40341	6.125
2.39674	6.1304
2.39011	6.1352
2.38352	6.1404
2.37696	6.1443
2.37044	6.1504
2.36395	6.1548
2.35751	6.157
2.35109	6.1584
2.34471	6.1597
2.33836	6.1562
2.33205	6.154
2.32578	6.1555
2.31953	6.1528
2.31332	6.1499
2.30714	6.1426
2.301	6.136
2.29489	6.1274
2.28881	6.1196
2.28276	6.1062
2.27675	6.0896
2.27076	6.0766
2.26481	6.0683
2.25889	6.0679
2.253	6.0774
2.24714	6.0823
2.24131	6.0862
2.23551	6.0852
2.22974	6.083
2.224	6.0813
2.21829	6.0825
2.21261	6.0808
2.20696	6.0842
2.20134	6.0842
2.19574	6.0879
2.19018	6.0859
2.18464	6.0815
2.17913	6.0766
2.17365	6.0713
2.16819	6.0666
2.16277	6.0554
2.15737	6.0466
2.15199	6.0364
2.14665	6.0261
2.14133	6.0163
2.13603	6.0112
2.13077	6.0088
2.12552	5.999
2.12031	5.9985
2.11512	5.9963
2.10995	5.9931
2.10481	5.9941
2.0997	5.9936
2.09461	5.9931
2.08954	5.99
2.0845	5.987
2.07948	5.9883
