Name: Kaolinite Al2Si2O5(OH)4
Type: Mineral
Class: Silicates
Subclass: Phyllosilicates (Chain Silicates); (Serpentine/Kaoline Group)
Particle Size: Fine  (0-2 micrometers)
Sample No.: kaolinite.3
Owner: JHU
Wavelength Range: IR
Origin: Washington Co., Georgia via Hunt and Salisbury Collection
Description: White, earthy clay. The <2 um separate is pure, well-
Measurement: Bidirectional reflectance
X Units: Wavelength (micrometers)
Y Units: Reflectance (percent)
wavelength	value
25.0442	1.043
24.3388	0.5312
23.6719	0.4141
23.0407	0.3481
22.4422	0.3579
21.8741	0.4331
21.334	0.4788
20.8199	0.3987
20.33	0.272
19.8627	0.364
19.4163	0.5427
18.9896	0.4714
18.5812	0.4536
18.19	0.4314
17.815	0.4307
17.4551	0.4648
17.1094	0.4907
16.7772	0.4487
16.4576	0.4319
16.15	0.4238
15.8537	0.3193
15.568	0.2825
15.2925	0.2715
15.0265	0.2603
14.7697	0.2703
14.5214	0.1892
14.2814	0.22
14.0492	0.2402
13.8244	0.3772
13.6067	0.4377
13.3957	0.3374
13.1912	0.3398
12.9929	0.4861
12.8004	0.4807
12.6135	0.3508
12.432	0.4636
12.2557	1.1374
12.0843	1.5491
11.9176	1.7407
11.7555	1.7949
11.5977	1.7331
11.444	1.5207
11.2944	1.1912
11.1487	0.7615
11.0067	0.3972
10.8682	0.2861
10.7332	0.2517
10.6015	0.2112
10.473	0.3052
10.3476	0.6228
10.2251	0.8291
10.1056	0.7004
9.98873	0.4724
9.87458	0.3435
9.763	0.3496
9.65392	0.4351
9.54724	0.4939
9.44291	0.5725
9.34082	0.5974
9.24091	0.6013
9.14312	0.4775
9.04739	0.3394
8.95363	0.3674
8.8618	0.9441
8.77183	1.2886
8.68368	1.2991
8.59727	1.1797
8.51257	0.9951
8.42951	0.7358
8.34807	0.5149
8.26819	0.4053
8.18981	0.384
8.11292	0.4539
8.03745	0.5767
7.96337	0.7371
7.89064	0.9314
7.81924	1.1746
7.74911	1.4492
7.68023	1.6658
7.61256	1.8948
7.54608	2.1433
7.48074	2.3599
7.41653	2.5308
7.35341	2.7029
7.29136	2.9087
7.23034	3.1675
7.17033	3.3752
7.11132	3.5845
7.05327	3.772
6.99616	4.0132
6.93996	4.1926
6.88467	4.2998
6.83024	4.3274
6.77667	4.4724
6.72393	4.6672
6.67201	4.7829
6.62089	4.9287
6.57054	5.1042
6.52095	5.2024
6.4721	5.2727
6.42398	5.4577
6.37657	5.6767
6.32986	5.7952
6.28382	5.926
6.23845	6.0442
6.19373	6.0744
6.14965	6.0376
6.10619	6.0574
6.06334	6.1047
6.02109	6.1006
5.97942	6.1213
5.93832	6.0564
5.89778	6.0049
5.8578	5.8481
5.81835	5.6255
5.77943	5.6348
5.74103	5.7082
5.70314	5.6052
5.66574	5.5954
5.62883	5.7944
5.5924	5.9292
5.55644	5.749
5.52093	5.1152
5.48588	4.6262
5.45127	5.0215
5.41709	5.3904
5.38334	5.7241
5.35	6.009
5.31708	6.1421
5.28456	6.1103
5.25243	5.9009
5.2207	5.7009
5.18934	5.5696
5.15836	5.6223
5.12775	5.8857
5.09749	6.4433
5.0676	7.0701
5.03805	7.6157
5.00884	8.0056
4.97998	8.2886
4.95144	8.6062
4.92322	8.7915
4.89533	8.907
4.86775	9.1094
4.84048	9.3083
4.81351	9.5486
4.78684	9.7871
4.76047	9.9236
4.73439	9.9643
4.70859	9.9616
4.68306	9.9541
4.65782	10.0239
4.63284	10.2922
4.60814	10.6223
4.58369	10.8476
4.5595	11.0102
4.53557	11.1076
4.51188	11.1091
4.48845	11.1721
4.46525	11.3203
4.44229	11.4223
4.41957	11.4758
4.39708	11.5342
4.37481	11.5925
4.35277	11.6272
4.33096	11.7007
4.30935	11.7468
4.28797	11.7426
4.26679	11.7033
4.24583	11.8215
4.22506	11.905
4.2045	11.9531
4.18414	11.9831
4.16398	12.0085
4.14401	12.0258
4.12423	12.0486
4.10464	12.0808
4.08523	12.1152
4.066	12.1455
4.04696	12.1674
4.02809	12.188
4.0094	12.2138
3.99088	12.2309
3.97253	12.2585
3.95435	12.2592
3.93634	12.2964
3.91848	12.3103
3.90079	12.3269
3.88326	12.3237
3.86589	12.3369
3.84867	12.3159
3.8316	12.2981
3.81468	12.2912
3.79791	12.2695
3.78129	12.2605
3.76482	12.2094
3.74848	12.1325
3.73229	12.0737
3.71624	11.9079
3.70032	11.5749
3.68454	11.6367
3.6689	11.8745
3.65338	11.9321
3.638	11.9204
3.62275	11.8667
3.60762	11.812
3.59262	11.7868
3.57775	11.7805
3.56299	11.7859
3.54836	11.7478
3.53385	11.7033
3.51945	11.643
3.50517	11.5815
3.49101	11.5905
3.47696	11.5652
3.46303	11.5212
3.4492	11.4575
3.43549	11.3725
3.42188	11.2512
3.40838	11.2158
3.39499	11.2334
3.38171	11.1887
3.36852	11.1775
3.35544	11.1228
3.34246	11.0578
3.32958	10.9821
3.3168	10.8987
3.30411	10.8388
3.29153	10.7409
3.27903	10.664
3.26664	10.5771
3.25433	10.5031
3.24212	10.4426
3.23	10.3484
3.21797	10.2671
3.20603	10.1767
3.19418	10.0871
3.18241	10.0161
3.17074	9.9197
3.15914	9.8513
3.14763	9.7573
3.13621	9.6338
3.12487	9.5193
3.11361	9.4004
3.10243	9.2805
3.09133	9.1574
3.0803	9.0525
3.06936	8.8989
3.0585	8.7553
3.04771	8.5959
3.037	8.4443
3.02636	8.3088
3.0158	8.1477
3.00531	7.9822
2.99489	7.813
2.98454	7.6413
2.97427	7.4714
2.96407	7.3218
2.95393	7.1409
2.94387	6.9148
2.93387	6.6545
2.92394	6.2532
2.91408	5.4482
2.90429	5.6572
2.89456	5.645
2.88489	5.4934
2.87529	5.3586
2.86576	5.2117
2.85628	5.0222
2.84687	4.8252
2.83752	4.6694
2.82823	4.4641
2.81901	4.2808
2.80984	4.0945
2.80073	3.8403
2.79168	3.3999
2.78269	2.9592
2.77376	2.1995
2.76488	0.7219
2.75606	0.6799
2.7473	0.9595
2.73859	0.4355
2.72994	0.5181
2.72134	0.5132
2.7128	0.415
2.70431	0.3992
2.69587	1.102
2.68748	2.5571
2.67915	3.9421
2.67087	5.031
2.66264	5.9983
2.65446	6.6606
2.64633	7.1203
2.63825	7.5442
2.63021	7.8769
2.62223	8.157
2.6143	8.2993
2.60641	8.3828
2.59857	8.5097
2.59078	8.5874
2.58304	8.5957
2.57534	8.6245
2.56768	8.7385
2.56008	8.8354
2.55251	8.8808
2.54499	8.8745
2.53752	9.0019
2.53009	9.0588
2.5227	9.1194
2.51536	9.178
2.50806	9.2251
2.5008	9.3369
2.49358	9.3305
2.4864	9.3677
2.47927	9.5981
2.47218	9.707
2.46512	9.7544
2.45811	9.8125
2.45114	9.9194
2.4442	9.9421
2.43731	10.1562
2.43045	10.4341
2.42363	10.5874
2.41685	10.6811
2.41011	10.7549
2.40341	10.7387
2.39674	10.6013
2.39011	10.3867
2.38352	10.2651
2.37696	10.4834
2.37044	10.7192
2.36395	10.747
2.35751	10.6875
2.35109	10.8491
2.34471	10.9717
2.33836	11.1064
2.33205	11.0219
2.32578	10.9709
2.31953	11.0217
2.31332	11.0114
2.30714	11.2253
2.301	11.3318
2.29489	11.4465
2.28881	11.5334
2.28276	11.5761
2.27675	11.7099
2.27076	11.8362
2.26481	11.9209
2.25889	12.0197
2.253	12.0532
2.24714	12.0796
2.24131	12.0923
2.23551	12.1135
2.22974	12.0886
2.224	11.9204
2.21829	11.4497
2.21261	9.8913
2.20696	8.8696
2.20134	10.2409
2.19574	10.4546
2.19018	10.6809
2.18464	10.9443
2.17913	10.9214
2.17365	10.874
2.16819	10.7922
2.16277	10.7163
2.15737	10.9033
2.15199	11.2346
2.14665	11.8213
2.14133	12.3174
2.13603	12.561
2.13077	12.7141
2.12552	12.8589
2.12031	12.9494
2.11512	12.9953
2.10995	13.0576
2.10481	13.2395
2.0997	13.271
2.09461	13.2805
2.08954	13.3361
2.0845	13.4194
2.07948	13.4297
