Name: Tonalite (Bonsall Tonalite)
Type: Rocks
Class: Igneous
Subclass: Intermediate
Particle Size: Solid
Sample No.: Tonalite.H1
Owner: JHU
Origin: San Diego County, California via Ward's Scientific (Cat. No. W-24)
Description: A medium-grained gray rock composed of whitish plagioclase,
Measurement: Directional (10 degree) hemispherical reflectance
X Units: Wavelength (micrometers)
Y Units: Reflectance (percent)
wavelength	value
14.0112	4.2431
13.7147	4.4268
13.4304	5.655
13.1577	5.6137
12.8959	7.5558
12.6443	6.2301
12.4023	6.2369
12.1694	4.2511
11.945	5.4992
11.7289	6.1021
11.5203	6.9496
11.3191	7.9563
11.1248	9.0932
10.937	10.3075
10.7555	11.4623
10.5799	12.7802
10.4099	13.8164
10.2454	14.9327
10.0859	16.6345
9.9313	18.3524
9.7814	18.3768
9.636	18.8311
9.4948	19.4948
9.3577	23.6165
9.2245	25.1688
9.095	25.0433
8.9691	25.4399
8.8467	25.6532
8.7275	24.9602
8.6116	20.2987
8.4986	25.1033
8.3886	24.7987
8.2814	22.4643
8.1769	17.6901
8.075	10.2804
7.9756	5.7878
7.8786	3.2376
7.784	2.2416
7.6916	1.7555
7.6014	1.5108
7.5133	1.4192
7.4272	1.4343
7.343	1.4672
7.2607	1.549
7.1803	1.6545
7.1016	1.7405
7.0246	1.9181
6.9493	2.0006
6.8755	2.0964
6.8034	2.1026
6.7327	2.2116
6.6634	2.2842
6.5956	2.3611
6.5292	2.4161
6.464	2.4384
6.4002	2.4382
6.3376	2.4012
6.2762	2.3196
6.216	2.3023
6.157	2.3198
6.099	2.3829
6.0421	2.4473
5.9863	2.4701
5.9315	2.5003
5.8777	2.5717
5.8249	2.6712
5.773	2.7577
5.722	2.8643
5.6719	2.9325
5.6227	2.9449
5.5744	2.9556
5.5268	3.0657
5.4801	3.1667
5.4341	3.3039
5.3889	3.3379
5.3445	3.3989
5.3008	3.461
5.2578	3.5522
5.2154	3.6865
5.1738	3.7889
5.1328	3.8555
5.0925	3.9309
5.0528	3.9823
5.0137	4.088
4.9752	4.1873
4.9373	4.361
4.9	4.5298
4.8632	4.7916
4.827	4.9641
4.7913	5.1133
4.7561	5.2805
4.7215	5.4321
4.6873	5.5041
4.6536	5.7129
4.6205	5.9948
4.5877	6.228
4.5555	6.4624
4.5237	6.5301
4.4923	6.6392
4.4614	6.7519
4.4309	7.0516
4.4008	7.3392
4.3711	7.7189
4.3418	8.1108
4.3129	8.4077
4.2844	8.6875
4.2563	8.9992
4.2285	9.2667
4.2011	9.5015
4.174	9.7641
4.1473	10.0385
4.1209	10.2802
4.0949	10.5223
4.0692	10.7308
4.0438	10.8567
4.0187	10.9139
3.994	10.9596
3.9695	11.0327
3.9453	11.2917
3.9214	11.5509
3.8979	11.699
3.8746	11.7436
3.8515	11.8322
3.8288	11.98
3.8063	12.1174
3.7841	12.2023
3.7621	12.1929
3.7404	12.2153
3.7189	12.2997
3.6977	12.4373
3.6767	12.5484
3.656	12.6007
3.6355	12.5916
3.6152	12.5412
3.5951	12.4457
3.5753	12.3316
3.5557	12.157
3.5363	11.8987
3.5171	11.0137
3.4981	10.2159
3.4793	10.4843
3.4607	10.4363
3.4423	9.8444
3.4241	8.7084
3.4061	9.0852
3.3883	9.387
3.3707	9.641
3.3533	10.0504
3.336	10.0507
3.3189	9.933
3.302	9.7408
3.2853	9.629
3.2687	9.3874
3.2523	9.1823
3.2361	8.9782
3.22	8.7708
3.204	8.5725
3.1883	8.3535
3.1727	8.118
3.1572	7.9319
3.1419	7.7777
3.1268	7.5829
3.1117	7.4639
3.0969	7.3763
3.0821	7.2904
3.0675	7.2002
3.0531	7.1836
3.0388	7.0741
3.0246	7.0423
3.0105	7.0617
2.9966	6.9548
2.9828	6.9199
2.9692	6.7856
2.9556	6.8508
2.9422	6.8402
2.9289	6.8862
2.9157	6.9171
2.9027	7.0094
2.8897	7.0596
2.8769	7.0286
2.8642	7.0865
2.8516	7.2059
2.8391	7.2862
2.8267	7.2492
2.8144	7.2405
2.8022	7.2963
2.7902	7.3137
2.7782	7.0826
2.7664	6.9628
2.7546	7.1145
2.7429	7.5457
2.7314	7.9927
2.7199	8.8605
2.7085	9.9119
2.6973	10.9047
2.6861	14.1492
2.675	16.2059
2.664	16.9452
2.6531	17.2914
2.6423	17.5792
2.6315	17.8256
2.6209	18.0358
2.6103	18.1286
2.5999	18.3365
2.5895	18.4542
2.5792	18.4565
2.569	18.5151
2.5588	18.4903
2.5487	18.6428
2.5388	18.6039
2.5289	18.5901
2.519	18.6613
2.5093	18.7389
2.4996	18.8254
2.49	18.9742
2.4805	19.0209
2.471	19.0762
2.4616	19.2205
2.4523	19.2579
2.4431	19.3841
2.4339	19.4854
2.4248	19.4589
2.4157	19.382
2.4068	19.3551
2.3979	19.3474
2.389	19.3958
2.3802	19.7212
2.3715	19.8782
2.3629	19.7756
2.3543	19.6673
2.3458	19.5801
2.3373	19.5501
2.3289	19.701
2.3206	20.0095
2.3123	20.3027
2.3041	20.6127
2.2959	20.9678
2.2878	21.4527
2.2798	21.7813
2.2718	21.9646
2.2638	22.0036
2.2559	21.8339
2.2481	21.974
2.2403	22.2477
2.2326	22.4118
2.225	22.4067
2.2173	22.3612
2.2098	22.169
2.2023	22.2519
2.1948	22.369
2.1874	22.6134
2.18	22.7479
2.1727	22.8051
2.1655	22.9547
2.1583	22.9472
2.1511	23.0441
2.144	23.0479
2.1369	23.0531
2.1299	23.0555
2.1229	23.0955
2.116	23.1075
2.1091	23.0943
2.1023	23.1501
2.0955	23.1716
2.0887	23.1698
2.082	23.2087
2.06	23.1077
2.028	22.9478
1.996	22.7369
1.964	22.0915
1.932	21.5701
1.9	21.1588
1.868	22.3999
1.836	22.8856
1.804	22.4584
1.772	22.1922
1.74	22.3137
1.708	22.0272
1.676	21.6402
1.644	21.4045
1.612	21.2356
1.58	21.1793
1.548	20.7849
1.516	20.4927
1.484	20.1424
1.452	20.0331
1.42	19.6513
1.388	19.0591
1.356	19.6199
1.324	19.4402
1.292	19.3609
1.26	19.3893
1.228	19.4875
1.196	19.3944
1.164	19.3451
1.132	19.6609
1.1	19.7436
1.068	20.0232
1.036	20.3438
1.004	20.7682
0.972	21.0006
0.94	21.2715
0.908	21.759
0.876	22.1749
0.844	22.7632
0.812	23.4129
0.795	23.4308
0.787	23.6003
0.779	23.5806
0.771	23.5612
0.763	23.8074
0.755	23.6659
0.747	23.8004
0.739	23.7892
0.731	23.684
0.723	23.418
0.715	24.079
0.707	23.897
0.699	24.2086
0.691	23.8807
0.683	24.1575
0.675	24.0575
0.667	23.9401
0.659	24.1327
0.651	24.2939
0.643	23.9871
0.635	24.2889
0.627	24.6554
0.619	24.3656
0.611	24.628
0.603	24.6696
0.595	24.5346
0.587	25.0446
0.579	24.7726
0.571	24.7338
0.563	24.8761
0.555	24.9716
0.547	24.7998
0.539	24.687
0.531	24.5198
0.523	24.3532
0.515	24.282
0.507	24.2871
0.499	24.2508
0.491	23.833
0.483	23.7628
0.475	23.5104
0.467	23.2482
0.459	22.8693
0.451	22.5429
0.443	22.1601
0.435	21.8397
0.427	21.6459
0.419	21.0573
0.411	20.7386
0.403	20.196
