Name: Gray/dark brown extremely stoney coarse sandy
Type: Soils
Class: Inceptisol
Subclass: Cryumbrept
Particle Size: see additional information
Sample No.: 87P3855
Owner: JHU
Origin: Lake Co., Co. via USDA Soil Conservation service.
Description: Dark grayish brown and very dark brown extremely stoney
Measurement: Directional (10 degree) hemispherical reflectance
X Units: Wavelength (micrometers)
Y Units: Reflectance (percent)
wavelength	value
14.011	1.9641
13.715	2.1404
13.43	2.1167
13.158	2.2263
12.896	2.6291
12.644	2.4951
12.402	2.4092
12.169	2.3237
11.945	2.7393
11.729	3.165
11.52	3.2839
11.319	3.3225
11.125	3.3315
10.937	3.2942
10.756	3.3096
10.58	3.5503
10.41	3.8494
10.245	4.1951
10.086	4.521
9.931	5.0195
9.781	5.2937
9.636	5.9626
9.495	5.7973
9.358	5.969
9.225	6.4201
9.095	6.1658
8.969	5.646
8.847	5.5583
8.727	5.1907
8.612	4.3516
8.499	4.8865
8.389	4.9722
8.281	4.7527
8.177	4.3359
8.075	3.2402
7.976	2.5
7.879	1.9849
7.784	1.8801
7.692	1.8254
7.601	1.7224
7.513	1.7239
7.427	1.7163
7.343	1.7241
7.261	1.6555
7.18	1.7363
7.102	1.7788
7.025	1.7744
6.949	1.8384
6.875	1.8923
6.803	2.043
6.733	2.3933
6.663	2.3882
6.596	2.2722
6.529	2.2488
6.464	2.2559
6.4	2.2183
6.338	2.1404
6.276	2.0061
6.216	1.9238
6.157	1.8472
6.099	1.8003
6.042	1.8232
5.986	1.8872
5.931	2.0644
5.878	2.342
5.825	2.5671
5.773	2.7559
5.722	3.2295
5.672	4.1367
5.623	4.9109
5.574	5.6897
5.527	6.5044
5.48	7.1997
5.434	7.6037
5.389	7.5102
5.345	7.4282
5.301	7.7246
5.258	8.2065
5.215	8.8332
5.174	9.1155
5.133	9.2224
5.093	9.2907
5.053	9.3183
5.014	9.3786
4.975	9.5437
4.937	9.7602
4.9	10.1584
4.863	10.6582
4.827	10.905
4.791	11.0468
4.756	11.1733
4.721	11.279
4.687	11.2153
4.654	11.4426
4.62	11.7988
4.588	12.0654
4.556	12.291
4.524	12.292
4.492	12.2085
4.461	12.3344
4.431	12.5888
4.401	12.8755
4.371	13.2065
4.342	13.4377
4.313	13.4431
4.284	13.2722
4.256	13.207
4.229	13.3896
4.201	13.528
4.174	13.5105
4.147	13.4326
4.121	13.3291
4.095	13.2246
4.069	13.0822
4.044	12.8562
4.019	12.6474
3.994	12.4914
3.97	12.3437
3.945	12.2055
3.921	12.0893
3.898	11.9011
3.875	11.6601
3.852	11.4519
3.829	11.2685
3.806	11.0578
3.784	10.8149
3.762	10.5254
3.74	10.2729
3.719	10.0569
3.698	9.8603
3.677	9.6753
3.656	9.4978
3.636	9.3152
3.615	9.0847
3.595	8.8574
3.575	8.581
3.556	8.2763
3.536	7.7956
3.517	7.0373
3.498	6.3684
3.479	6.3188
3.461	6.062
3.442	5.7341
3.424	5.1267
3.406	5.1538
3.388	5.4277
3.371	5.6077
3.353	5.8694
3.336	5.991
3.319	5.9531
3.302	5.7619
3.285	5.5578
3.269	5.3474
3.252	5.1487
3.236	4.9599
3.22	4.8235
3.204	4.6533
3.188	4.4783
3.173	4.3061
3.157	4.1448
3.142	4.0039
3.127	3.8491
3.112	3.7248
3.097	3.6077
3.082	3.4963
3.067	3.4309
3.053	3.3237
3.039	3.2786
3.025	3.2273
3.011	3.1255
2.997	3.125
2.983	3.0771
2.969	3.0559
2.956	3.0044
2.942	3.0195
2.929	2.9822
2.916	3.0955
2.903	3.1226
2.89	3.1619
2.877	3.2349
2.864	3.353
2.852	3.4748
2.839	3.5867
2.827	3.6904
2.814	3.6758
2.802	3.7424
2.79	3.6489
2.778	3.5874
2.766	3.4553
2.755	3.6626
2.743	4.4795
2.731	5.885
2.72	8.2859
2.708	9.7395
2.697	12.5373
2.686	17.3457
2.675	19.8364
2.664	21.0351
2.653	21.9587
2.642	22.5026
2.632	22.7741
2.621	23.0517
2.61	23.1938
2.6	23.2753
2.59	23.4035
2.579	23.4741
2.569	23.4318
2.559	23.4409
2.549	23.2912
2.539	23.1891
2.529	23.0368
2.519	22.8862
2.509	22.8054
2.5	22.7712
2.49	22.8071
2.481	23.0234
2.471	23.2126
2.462	23.4526
2.452	23.7131
2.443	24.0754
2.434	24.4738
2.425	24.9404
2.416	25.446
2.407	25.6037
2.398	25.8049
2.389	25.8508
2.38	25.8498
2.372	25.9465
2.363	25.8349
2.354	25.7573
2.346	25.7038
2.337	26.093
2.329	26.3869
2.321	26.685
2.312	26.8752
2.304	27.1281
2.296	27.4875
2.288	27.738
2.28	27.881
2.272	27.9611
2.264	28.1049
2.256	28.1506
2.248	28.3779
2.24	28.6178
2.233	28.6115
2.225	28.1818
2.217	27.706
2.21	27.1364
2.202	27.4611
2.195	27.8886
2.187	28.4584
2.18	28.9098
2.173	29.0502
2.166	29.266
2.158	29.2792
2.151	29.3505
2.144	29.5468
2.137	29.5475
2.13	29.5817
2.123	29.6303
2.116	29.5246
2.109	29.7165
2.102	29.8544
2.095	29.8337
2.089	29.936
2.082	29.9443
2.06	30.3118
2.028	30.1736
1.996	30.0855
1.964	27.682
1.932	25.737
1.9	26.9814
1.868	34.8791
1.836	36.7888
1.804	36.3758
1.772	36.3005
1.74	36.0528
1.708	36.3107
1.676	36.1389
1.644	36.0094
1.612	35.8359
1.58	35.6049
1.548	35.1386
1.516	34.8423
1.484	33.7643
1.452	32.705
1.42	31.864
1.388	33.3084
1.356	34.8681
1.324	34.6938
1.292	34.5948
1.26	33.3056
1.228	32.8247
1.196	31.7611
1.164	30.842
1.132	29.8235
1.1	29.1178
1.068	28.2073
1.036	26.9049
1.004	25.7046
0.972	24.3721
0.94	23.3762
0.908	21.9086
0.876	20.4266
0.844	19.3826
0.812	18.037
0.795	17.0552
0.787	16.5535
0.779	16.1379
0.771	15.8685
0.763	15.2713
0.755	15.0315
0.747	14.5121
0.739	14.2117
0.731	13.7163
0.723	13.368
0.715	12.8805
0.707	12.4126
0.699	12.0978
0.691	11.4991
0.683	10.9606
0.675	10.816
0.667	10.3867
0.659	10.1293
0.651	9.6426
0.643	9.6514
0.635	9.0673
0.627	8.5973
0.619	8.5045
0.611	8.0678
0.603	7.8815
0.595	7.5586
0.587	7.2259
0.579	6.924
0.571	6.7054
0.563	6.4112
0.555	5.9602
0.547	5.568
0.539	5.3738
0.531	4.6381
0.523	4.5623
0.515	3.92
0.507	3.7765
0.499	3.1059
0.491	2.6669
0.483	2.5172
0.475	2.4556
0.467	1.7715
0.459	1.4751
0.451	1.0074
0.443	0.7592
0.435	0.0056
0.427	0
0.419	0
0.411	0
0.403	0
