Name: Topaz Al2SiO4(F,OH)2
Type: Mineral
Class: Silicates
Subclass: Nesosilicates (Isolated tetrahedra)
Particle Size: Coarse  (75 - 250  Micrometers)
Sample No.: topaz.3
Owner: JHU
Wavelength Range: IR
Origin: Durango, Mexico via Don Hoover, USGS
Description: The sample was composed of several different colorless
Measurement: Bidirectional reflectance
X Units: Wavelength (micrometers)
Y Units: Reflectance (percent)
wavelength	value
25.0442	2.957
24.3388	2.9485
23.6719	3.7502
23.0407	4.8208
22.4422	7.2602
21.8741	11.0134
21.334	7.6211
20.8199	6.8105
20.33	6.6824
19.8627	6.3108
19.4163	3.8039
18.9896	4.3867
18.5812	4.5679
18.19	5.5803
17.815	1.8979
17.4551	1.8501
17.1094	2.4856
16.7772	2.6338
16.4576	5.4111
16.15	9.2595
15.8537	9.9504
15.568	9.8872
15.2925	9.5886
15.0265	8.8362
14.7697	5.2771
14.5214	2.7722
14.2814	0.49
14.0492	0.4683
13.8244	0.3506
13.6067	0.6245
13.3957	0.8628
13.1912	1.0903
12.9929	1.2954
12.8004	1.4824
12.6135	1.7053
12.432	1.9734
12.2557	2.3027
12.0843	2.7488
11.9176	3.4097
11.7555	4.7158
11.5977	7.1821
11.444	9.5105
11.2944	9.989
11.1487	9.4607
11.0067	8.9485
10.8682	8.4936
10.7332	8.3325
10.6015	9.6364
10.473	10.3193
10.3476	10.1648
10.2251	8.8469
10.1056	6.2649
9.98873	7.8469
9.87458	8.9236
9.763	8.1411
9.65392	7.5405
9.54724	6.9888
9.44291	6.0818
9.34082	5.0061
9.24091	3.7463
9.14312	2.4499
9.04739	1.4224
8.95363	0.7302
8.8618	0.3186
8.77183	0.1013
8.68368	0.0627
8.59727	0.0601
8.51257	0.0706
8.42951	0.1138
8.34807	0.1653
8.26819	0.2222
8.18981	0.3049
8.11292	0.3958
8.03745	0.4941
7.96337	0.5837
7.89064	0.7598
7.81924	0.9275
7.74911	1.114
7.68023	1.2153
7.61256	1.2944
7.54608	1.3892
7.48074	1.5071
7.41653	1.6179
7.35341	1.8225
7.29136	2.0266
7.23034	2.1511
7.17033	2.2766
7.11132	2.4148
7.05327	2.46
6.99616	2.4907
6.93996	2.6064
6.88467	2.7788
6.83024	2.9182
6.77667	2.9172
6.72393	2.8906
6.67201	3.0017
6.62089	3.1992
6.57054	3.3967
6.52095	3.5046
6.4721	3.562
6.42398	3.6726
6.37657	3.8125
6.32986	3.9944
6.28382	4.0737
6.23845	4.175
6.19373	4.3354
6.14965	4.4929
6.10619	4.6196
6.06334	4.7883
6.02109	5.0315
5.97942	5.2869
5.93832	5.384
5.89778	5.1985
5.8578	4.6282
5.81835	3.967
5.77943	3.6494
5.74103	3.9641
5.70314	4.1103
5.66574	3.8061
5.62883	3.3118
5.5924	2.4871
5.55644	1.749
5.52093	1.512
5.48588	1.552
5.45127	1.6811
5.41709	1.8533
5.38334	1.8198
5.35	1.7969
5.31708	1.9529
5.28456	2.198
5.25243	2.5474
5.2207	3.2834
5.18934	4.0571
5.15836	4.6406
5.12775	5
5.09749	5.3801
5.0676	5.8352
5.03805	6.1599
5.00884	6.3657
4.97998	6.355
4.95144	5.9858
4.92322	6.3391
4.89533	7.4184
4.86775	8.1889
4.84048	8.6137
4.81351	8.8869
4.78684	9.0583
4.76047	9.1692
4.73439	9.2446
4.70859	9.31
4.68306	9.3716
4.65782	9.4228
4.63284	9.4873
4.60814	9.5366
4.58369	9.5815
4.5595	9.6289
4.53557	9.6777
4.51188	9.6987
4.48845	9.7295
4.46525	9.7798
4.44229	9.8196
4.41957	9.874
4.39708	9.9197
4.37481	9.9524
4.35277	9.9836
4.33096	9.9597
4.30935	9.9846
4.28797	10.0891
4.26679	10.1362
4.24583	10.1794
4.22506	10.2148
4.2045	10.2326
4.18414	10.227
4.16398	10.2141
4.14401	10.1833
4.12423	10.1714
4.10464	10.2109
4.08523	10.2512
4.066	10.2856
4.04696	10.3313
4.02809	10.3435
4.0094	10.3532
3.99088	10.3564
3.97253	10.3764
3.95435	10.3882
3.93634	10.3923
3.91848	10.3769
3.90079	10.3208
3.88326	10.2146
3.86589	10.0671
3.84867	10.0068
3.8316	10.0498
3.81468	10.126
3.79791	10.1875
3.78129	10.2346
3.76482	10.2844
3.74848	10.3139
3.73229	10.3354
3.71624	10.3325
3.70032	10.3413
3.68454	10.3103
3.6689	10.2783
3.65338	10.2138
3.638	10.1765
3.62275	10.156
3.60762	10.1648
3.59262	10.1662
3.57775	10.1697
3.56299	10.1574
3.54836	10.1594
3.53385	10.1718
3.51945	10.1811
3.50517	10.1303
3.49101	10.2072
3.47696	10.2536
3.46303	10.2614
3.4492	10.2602
3.43549	10.2253
3.42188	10.1711
3.40838	10.2185
3.39499	10.2746
3.38171	10.3032
3.36852	10.3186
3.35544	10.3286
3.34246	10.3376
3.32958	10.344
3.3168	10.3366
3.30411	10.3401
3.29153	10.3296
3.27903	10.3159
3.26664	10.3098
3.25433	10.3135
3.24212	10.2951
3.23	10.2888
3.21797	10.2744
3.20603	10.2656
3.19418	10.2571
3.18241	10.2546
3.17074	10.2461
3.15914	10.2324
3.14763	10.2156
3.13621	10.208
3.12487	10.1882
3.11361	10.1826
3.10243	10.1611
3.09133	10.1421
3.0803	10.1321
3.06936	10.1281
3.0585	10.1176
3.04771	10.1103
3.037	10.1152
3.02636	10.1072
3.0158	10.0888
3.00531	10.0722
2.99489	10.06
2.98454	10.0488
2.97427	10.0268
2.96407	9.9851
2.95393	9.9397
2.94387	9.7986
2.93387	9.2378
2.92394	5.8542
2.91408	7.2373
2.90429	8.1333
2.89456	9.6094
2.88489	9.904
2.87529	9.9668
2.86576	10.0161
2.85628	10.0586
2.84687	10.0564
2.83752	10.0378
2.82823	9.989
2.81901	10.0378
2.80984	10.0837
2.80073	10.0942
2.79168	10.0876
2.78269	10.0661
2.77376	10.0654
2.76488	9.9475
2.75606	9.7165
2.7473	9.6076
2.73859	6.4829
2.72994	9.9011
2.72134	10.1509
2.7128	10.227
2.70431	10.2495
2.69587	10.3525
2.68748	10.4568
2.67915	10.4851
2.67087	10.4895
2.66264	10.5559
2.65446	10.5727
2.64633	10.5681
2.63825	10.5691
2.63021	10.5403
2.62223	10.5415
2.6143	10.5381
2.60641	10.5012
2.59857	10.5539
2.59078	10.5713
2.58304	10.5678
2.57534	10.551
2.56768	10.5598
2.56008	10.55
2.55251	10.5554
2.54499	10.5517
2.53752	10.5564
2.53009	10.5625
2.5227	10.5442
2.51536	10.5696
2.50806	10.5593
2.5008	10.5691
2.49358	10.602
2.4864	10.5742
2.47927	10.5818
2.47218	10.571
2.46512	10.5678
2.45811	10.5832
2.45114	10.594
2.4442	10.5747
2.43731	10.5786
2.43045	10.5681
2.42363	10.5952
2.41685	10.5947
2.41011	10.6064
2.40341	10.6028
2.39674	10.6108
2.39011	10.613
2.38352	10.6152
2.37696	10.6142
2.37044	10.5981
2.36395	10.5288
2.35751	10.5468
2.35109	10.4541
2.34471	10.5683
2.33836	10.6225
2.33205	10.6052
2.32578	10.5766
2.31953	10.6162
2.31332	10.6411
2.30714	10.6404
2.301	10.6533
2.29489	10.6513
2.28881	10.6611
2.28276	10.6621
2.27675	10.6572
2.27076	10.6518
2.26481	10.6572
2.25889	10.646
2.253	10.6684
2.24714	10.665
2.24131	10.6616
2.23551	10.6997
2.22974	10.6792
2.224	10.6479
2.21829	10.6465
2.21261	10.6338
2.20696	10.5244
2.20134	10.5981
2.19574	10.6601
2.19018	10.6587
2.18464	10.7016
2.17913	10.6672
2.17365	10.6855
2.16819	10.7219
2.16277	10.7251
2.15737	10.7082
2.15199	10.707
2.14665	10.6887
2.14133	10.7146
2.13603	10.7109
2.13077	10.7478
2.12552	10.7571
2.12031	10.7422
2.11512	10.7597
2.10995	10.7043
2.10481	10.7336
2.0997	10.7295
2.09461	10.7324
2.08954	10.7446
2.0845	10.6894
2.07948	10.6572
