Name: Beryl Be3Al2Si6O18
Type: Mineral
Class: Silicates
Subclass: Cyclosilicates (Ring Silicates)
Particle Size: Coarse  (74-250 Micrometers)
Sample No.: beryl.1
Owner: JHU
Wavelength Range: IR
Origin: Sample from Maine via Hunt and Salisbury Collection sample
Description: The hand sample was cut and polished along an
Measurement: Bidirectional reflectance
X Units: Wavelength (micrometers)
Y Units: Reflectance (percent)
wavelength	value
25.0442	4.0976
24.3388	4.8498
23.6719	5.8428
23.0407	7.625
22.4422	8.4721
21.8741	8.8659
21.334	8.7546
20.8199	5.9451
20.33	6.8034
19.8627	3.977
19.4163	5.7888
18.9896	7.1763
18.5812	7.2763
18.19	6.3
17.815	3.3552
17.4551	2.187
17.1094	3.3562
16.7772	6.3047
16.4576	4.5857
16.15	1.8235
15.8537	2.3169
15.568	2.7351
15.2925	3.0959
15.0265	3.2688
14.7697	4.8828
14.5214	6.2932
14.2814	4.9595
14.0492	2.6326
13.8244	2.7793
13.6067	3.5171
13.3957	4.126
13.1912	4.1553
12.9929	2.7417
12.8004	2.0867
12.6135	2.6218
12.432	3.4897
12.2557	3.803
12.0843	3.1836
11.9176	2.3025
11.7555	2.144
11.5977	2.3757
11.444	2.6538
11.2944	3.008
11.1487	3.3821
11.0067	3.9563
10.8682	4.843
10.7332	5.8642
10.6015	6.8699
10.473	8.3567
10.3476	9.3691
10.2251	9.0176
10.1056	7.8081
9.98873	5.5827
9.87458	5.7688
9.763	6.8782
9.65392	6.0837
9.54724	4.9568
9.44291	4.6875
9.34082	4.9436
9.24091	5.1931
9.14312	5.1975
9.04739	5.0447
8.95363	4.7312
8.8618	4.3303
8.77183	3.9319
8.68368	3.5317
8.59727	3.344
8.51257	3.4636
8.42951	3.7095
8.34807	5.1814
8.26819	6.2358
8.18981	6.4807
8.11292	6.6653
8.03745	6.8296
7.96337	6.9507
7.89064	7.1772
7.81924	7.6616
7.74911	7.4167
7.68023	5.9302
7.61256	4.4975
7.54608	3.134
7.48074	2.0332
7.41653	1.1689
7.35341	0.5769
7.29136	0.4194
7.23034	0.4631
7.17033	0.5388
7.11132	0.6116
7.05327	0.6787
6.99616	0.7402
6.93996	0.8037
6.88467	0.844
6.83024	0.8884
6.77667	0.9756
6.72393	1.0872
6.67201	1.1663
6.62089	1.282
6.57054	1.4272
6.52095	1.4329
6.4721	1.2146
6.42398	1.3877
6.37657	1.5806
6.32986	1.6934
6.28382	1.6201
6.23845	1.3586
6.19373	1.5107
6.14965	1.1477
6.10619	1.1084
6.06334	1.5774
6.02109	1.7993
5.97942	2.1765
5.93832	2.2976
5.89778	2.2727
5.8578	2.1694
5.81835	2.073
5.77943	2.0803
5.74103	2.1558
5.70314	2.2664
5.66574	2.2993
5.62883	2.2646
5.5924	2.2219
5.55644	2.3223
5.52093	2.3193
5.48588	2.3694
5.45127	2.5757
5.41709	2.7493
5.38334	2.8328
5.35	2.7847
5.31708	2.6606
5.28456	2.4407
5.25243	2.0718
5.2207	1.7341
5.18934	1.5752
5.15836	1.5459
5.12775	1.5691
5.09749	1.6865
5.0676	1.925
5.03805	2.1919
5.00884	2.4348
4.97998	2.7405
4.95144	3.0371
4.92322	3.2751
4.89533	3.5998
4.86775	4.0376
4.84048	4.4485
4.81351	4.7834
4.78684	5.3818
4.76047	6.0327
4.73439	6.4958
4.70859	6.8362
4.68306	7.0044
4.65782	7.1631
4.63284	7.4394
4.60814	7.812
4.58369	8.115
4.5595	8.3689
4.53557	8.635
4.51188	8.7822
4.48845	8.7615
4.46525	8.7263
4.44229	8.9331
4.41957	9.3247
4.39708	9.7075
4.37481	9.9739
4.35277	9.9602
4.33096	9.8894
4.30935	9.1333
4.28797	7.4136
4.26679	5.3274
4.24583	3.876
4.22506	4.5405
4.2045	5.8511
4.18414	10.3269
4.16398	12.0156
4.14401	12.3313
4.12423	12.4316
4.10464	12.4404
4.08523	12.4558
4.066	12.4992
4.04696	12.5298
4.02809	12.6123
4.0094	12.7819
3.99088	12.9216
3.97253	13.0388
3.95435	13.1186
3.93634	13.1867
3.91848	13.2378
3.90079	13.2902
3.88326	13.3408
3.86589	13.3694
3.84867	13.3901
3.8316	13.4145
3.81468	13.4297
3.79791	13.4233
3.78129	13.4052
3.76482	13.5083
3.74848	13.5236
3.73229	13.5354
3.71624	13.5556
3.70032	13.5808
3.68454	13.5659
3.6689	13.5398
3.65338	13.55
3.638	13.5656
3.62275	13.6018
3.60762	13.645
3.59262	13.6684
3.57775	13.7102
3.56299	13.716
3.54836	13.7243
3.53385	13.7251
3.51945	13.7085
3.50517	13.6877
3.49101	13.6799
3.47696	13.6479
3.46303	13.612
3.4492	13.5649
3.43549	13.4956
3.42188	13.4016
3.40838	13.3007
3.39499	13.2483
3.38171	13.1875
3.36852	13.1291
3.35544	13.0542
3.34246	12.9758
3.32958	12.8984
3.3168	12.7844
3.30411	12.7087
3.29153	12.6152
3.27903	12.5171
3.26664	12.4406
3.25433	12.354
3.24212	12.2436
3.23	12.0373
3.21797	11.6843
3.20603	11.6208
3.19418	11.5696
3.18241	11.458
3.17074	11.2353
3.15914	11.0654
3.14763	11.0053
3.13621	10.8415
3.12487	10.6396
3.11361	10.365
3.10243	9.8049
3.09133	9.2864
3.0803	9.6338
3.06936	9.9968
3.0585	10.008
3.04771	9.9365
3.037	9.842
3.02636	9.7331
3.0158	9.613
3.00531	9.4746
2.99489	9.3406
2.98454	9.2175
2.97427	9.0898
2.96407	8.9839
2.95393	8.8381
2.94387	8.6863
2.93387	8.5281
2.92394	8.3762
2.91408	8.1216
2.90429	7.8157
2.89456	7.5205
2.88489	7.1682
2.87529	6.7007
2.86576	6.3264
2.85628	6.0408
2.84687	5.699
2.83752	5.5015
2.82823	5.436
2.81901	4.8896
2.80984	4.4338
2.80073	4.0278
2.79168	2.8342
2.78269	1.7646
2.77376	1.9119
2.76488	3.7209
2.75606	3.5676
2.7473	3.0146
2.73859	2.4241
2.72994	2.1711
2.72134	2.168
2.7128	1.905
2.70431	1.5532
2.69587	1.9558
2.68748	2.9031
2.67915	3.593
2.67087	4.1101
2.66264	4.6492
2.65446	5.1587
2.64633	5.6465
2.63825	6.0537
2.63021	6.2556
2.62223	6.3462
2.6143	6.2493
2.60641	6.1257
2.59857	6.0425
2.59078	6.082
2.58304	6.1328
2.57534	6.2568
2.56768	6.428
2.56008	6.7192
2.55251	7.341
2.54499	8.3603
2.53752	9.2036
2.53009	9.6758
2.5227	9.9697
2.51536	10.2856
2.50806	10.6274
2.5008	11.0984
2.49358	11.5517
2.4864	11.9526
2.47927	12.3073
2.47218	12.5593
2.46512	12.7485
2.45811	12.9887
2.45114	13.208
2.4442	13.3979
2.43731	13.5688
2.43045	13.6718
2.42363	13.8125
2.41685	13.882
2.41011	13.9775
2.40341	14.0673
2.39674	14.038
2.39011	14.1118
2.38352	14.1074
2.37696	14.1152
2.37044	14.1679
2.36395	14.1582
2.35751	14.2006
2.35109	14.2397
2.34471	14.2729
2.33836	14.2402
2.33205	14.2651
2.32578	14.3364
2.31953	14.4565
2.31332	14.4687
2.30714	14.4775
2.301	14.5153
2.29489	14.5305
2.28881	14.5371
2.28276	14.5454
2.27675	14.54
2.27076	14.5395
2.26481	14.5615
2.25889	14.5581
2.253	14.5561
2.24714	14.5376
2.24131	14.5717
2.23551	14.5942
2.22974	14.5561
2.224	14.5105
2.21829	14.5085
2.21261	14.4987
2.20696	14.417
2.20134	14.3452
2.19574	14.3833
2.19018	14.4282
2.18464	14.3862
2.17913	14.364
2.17365	14.3955
2.16819	14.3764
2.16277	14.3283
2.15737	14.2785
2.15199	14.1994
2.14665	14.2163
2.14133	14.2934
2.13603	14.3742
2.13077	14.3422
2.12552	14.3632
2.12031	14.3388
2.11512	14.3193
2.10995	14.3095
2.10481	14.3225
2.0997	14.3742
2.09461	14.3056
2.08954	14.2973
2.0845	14.3237
2.07948	14.2954
