Name: Antigorite (Mg, Fe+2)3 Si2O5(OH)4
Type: Mineral
Class: Silicates
Subclass: Phyllosilicates  (Sheet silicates)  (Serpentine/Kaolin Group)
Particle Size: Fine (less than 75 Micrometers)
Sample No.: antigorite.1
Owner: JHU.
Wavelength Range: IR
Origin: Sample from Kalsertal, Tyrol, Austria, via the Smithsonian
Description: The sample was a large green single crystal.  It appeared
Measurement: Bidirectional reflectance
X Units: Wavelength (micrometers)
Y Units: Reflectance (percent)
wavelength	value
25.044	1.7612
24.339	1.8457
23.672	1.925
23.041	1.7085
22.442	1.9448
21.874	2.2104
21.334	2.2881
20.82	2.3564
20.33	2.4336
19.863	2.2397
19.416	2.0542
18.99	1.4846
18.581	1.0701
18.19	1.1113
17.815	1.0713
17.455	1.0837
17.109	1.0979
16.777	1.1367
16.458	1.1653
16.15	1.26
15.854	1.3037
15.568	1.3809
15.292	1.4795
15.027	1.582
14.77	1.6282
14.521	1.437
14.281	1.0515
14.049	0.8889
13.824	0.8633
13.607	0.908
13.396	1.083
13.191	1.2939
12.993	1.4368
12.8	1.6194
12.614	1.9001
12.432	2.1189
12.256	2.3574
12.084	2.6692
11.918	2.8855
11.755	3.0288
11.598	3.0976
11.444	3.0879
11.294	2.9841
11.149	2.6999
11.007	2.3457
10.868	1.9429
10.733	1.6008
10.602	1.3157
10.473	1.1687
10.348	1.1492
10.225	1.1785
10.106	1.2832
9.989	1.3796
9.875	1.5325
9.763	1.7236
9.654	2.0627
9.547	2.3347
9.443	2.0273
9.341	1.6201
9.241	1.54
9.143	1.7688
9.047	2.2693
8.954	1.9604
8.862	1.6284
8.772	1.0701
8.684	0.4587
8.597	0.4917
8.513	0.7104
8.43	0.9177
8.348	0.9573
8.268	1.0918
8.19	1.7666
8.113	2.4578
8.037	2.9656
7.963	3.3459
7.891	3.6636
7.819	3.9914
7.749	4.3064
7.68	4.5412
7.613	4.6909
7.546	4.8176
7.481	4.9602
7.417	5.1299
7.353	5.3694
7.291	5.6084
7.23	5.8049
7.17	5.9712
7.111	6.1064
7.053	6.2585
6.996	6.3769
6.94	6.4956
6.885	6.5559
6.83	6.6545
6.777	6.8374
6.724	6.9336
6.672	7.0273
6.621	7.1057
6.571	7.1396
6.521	7.1023
6.472	6.9472
6.424	6.6828
6.377	6.3857
6.33	6.1692
6.284	6.1245
6.238	6.1296
6.194	6.0796
6.15	6.0715
6.106	6.2353
6.063	6.5823
6.021	6.9892
5.979	7.2695
5.938	7.4233
5.898	7.4963
5.858	7.5769
5.818	7.7141
5.779	7.9028
5.741	8.0703
5.703	8.1914
5.666	8.2893
5.629	8.4358
5.592	8.6391
5.556	8.8537
5.521	9.0273
5.486	9.1623
5.451	9.2617
5.417	9.4018
5.383	9.5261
5.35	9.6765
5.317	9.8203
5.285	10.0195
5.252	10.2658
5.221	10.5427
5.189	10.7375
5.158	10.8579
5.128	10.9101
5.097	10.9553
5.068	10.9765
5.038	11.0095
5.009	11.1272
4.98	11.3239
4.951	11.5088
4.923	11.5666
4.895	11.6616
4.868	11.8708
4.84	12.0671
4.814	12.1701
4.787	12.2155
4.76	12.3125
4.734	12.5119
4.709	12.7453
4.683	12.9624
4.658	13.0984
4.633	13.1906
4.608	13.2734
4.584	13.364
4.56	13.445
4.536	13.5461
4.512	13.6264
4.488	13.6884
4.465	13.7243
4.442	13.7334
4.42	13.7693
4.397	13.7954
4.375	13.8195
4.353	13.821
4.331	13.8339
4.309	13.8418
4.288	13.8567
4.267	13.8667
4.246	13.8928
4.225	13.9235
4.205	13.9553
4.184	13.9797
4.164	14.021
4.144	14.0534
4.124	14.0769
4.105	14.1189
4.085	14.1692
4.066	14.2089
4.047	14.2314
4.028	14.2556
4.009	14.2649
3.991	14.269
3.973	14.2568
3.954	14.2507
3.936	14.239
3.918	14.2358
3.901	14.2094
3.883	14.1867
3.866	14.1401
3.849	14.0891
3.832	14.0278
3.815	13.9777
3.798	13.926
3.781	13.8747
3.765	13.8095
3.748	13.7351
3.732	13.643
3.716	13.5029
3.7	13.448
3.685	13.4306
3.669	13.3667
3.653	13.3303
3.638	13.2693
3.623	13.2038
3.608	13.1301
3.593	13.0522
3.578	12.9638
3.563	12.883
3.548	12.7568
3.534	12.6015
3.519	12.3786
3.505	12.1496
3.491	12.0739
3.477	11.9851
3.463	11.9629
3.449	11.8039
3.435	11.5903
3.422	11.3842
3.408	11.2622
3.395	11.3708
3.382	11.2846
3.369	11.1216
3.355	10.9126
3.342	11.0639
3.33	11.2134
3.317	11.2043
3.304	11.1469
3.292	11.092
3.279	11.0544
3.267	10.9692
3.254	10.8725
3.242	10.7922
3.23	10.7727
3.218	10.7534
3.206	10.657
3.194	10.5307
3.182	10.3991
3.171	10.247
3.159	10.114
3.148	9.9165
3.136	9.7563
3.125	9.6262
3.114	9.5127
3.102	9.3694
3.091	9.2412
3.08	9.1196
3.069	8.9597
3.058	8.7739
3.048	8.5837
3.037	8.4074
3.026	8.2002
3.016	7.9546
3.005	7.7075
2.995	7.456
2.985	7.2026
2.974	6.8879
2.964	6.5537
2.954	6.2226
2.944	5.844
2.934	5.5237
2.924	5.2283
2.914	4.9497
2.904	4.7556
2.895	4.6177
2.885	4.5132
2.875	4.4363
2.866	4.3391
2.856	4.1494
2.847	3.8633
2.838	3.4602
2.828	3.0664
2.819	2.7053
2.81	2.4424
2.801	2.2695
2.792	2.2009
2.783	2.1995
2.774	2.197
2.765	1.989
2.756	1.6746
2.747	1.2844
2.739	1.041
2.73	0.8364
2.721	0.6597
2.713	0.8726
2.704	1.439
2.696	4.1167
2.687	7.5747
2.679	10.6806
2.671	11.9524
2.663	12.4211
2.654	12.7671
2.646	13.1418
2.638	13.3681
2.63	13.4328
2.622	13.3867
2.614	13.3391
2.606	13.2229
2.599	13.0749
2.591	12.8957
2.583	12.7129
2.575	12.4966
2.568	12.3408
2.56	12.3986
2.553	12.4961
2.545	12.5493
2.538	12.4975
2.53	12.2412
2.523	11.9716
2.515	11.8967
2.508	12.0488
2.501	12.1548
2.494	12.2256
2.486	12.4257
2.479	12.664
2.472	12.8069
2.465	12.7387
2.458	12.5241
2.451	12.3769
2.444	12.4492
2.437	12.6308
2.43	12.6616
2.424	12.6494
2.417	12.7251
2.41	12.8798
2.403	12.9939
2.397	13.039
2.39	13.061
2.384	12.914
2.377	13.0669
2.37	13.435
2.364	13.5337
2.358	13.3935
2.351	13.0708
2.345	12.4436
2.338	11.6567
2.332	11.1272
2.326	10.7839
2.32	11.018
2.313	11.5249
2.307	12.0039
2.301	12.3398
2.295	12.6079
2.289	12.8879
2.283	13.0361
2.277	13.1474
2.271	13.3672
2.265	13.7197
2.259	13.9008
2.253	13.946
2.247	14.0539
2.241	14.1784
2.236	14.4882
2.23	14.7771
2.224	15
2.218	15.1106
2.213	15.1523
2.207	15.1543
2.201	15.165
2.196	15.2036
2.19	15.1682
2.185	15.2143
2.179	15.207
2.174	15.2016
2.168	15.2461
2.163	15.1818
2.157	15.1474
2.152	15.0586
2.147	14.9919
2.141	14.9389
2.136	14.9458
2.131	14.9006
2.126	14.9477
2.12	14.9516
2.115	14.8879
2.11	14.9248
2.105	14.8977
2.1	14.8833
2.095	14.9963
2.09	15.0393
2.085	15.1076
2.079	15.2119
