Name: Gypsum (selenite) CaSO4.2H2O
Type: Mineral
Class: Sulfates
Particle Size: Coarse  (74-250 Micrometers)
Sample No.: gypsum.2
Owner: JHU
Wavelength Range: IR
Origin: Washington Co., Vermont, from Hunt and Salisbury Collection
Description: The sample appears to be pure semi-transparent
Measurement: Bidirectional reflectance
X Units: Wavelength (micrometers)
Y Units: Reflectance (percent)
wavelength	value
25.0442	1.113
24.3388	1.1011
23.6719	1.1616
23.0407	1.1721
22.4422	1.2109
21.8741	1.364
21.334	1.3933
20.8199	1.4226
20.33	1.4453
19.8627	1.3838
19.4163	1.2678
18.9896	1.1777
18.5812	1.0671
18.19	1.0032
17.815	0.9558
17.4551	0.9817
17.1094	1.0105
16.7772	1.2222
16.4576	1.4336
16.15	0.8328
15.8537	0.6208
15.568	0.6956
15.2925	0.8425
15.0265	1.3101
14.7697	1.8782
14.5214	1.4351
14.2814	0.8286
14.0492	0.7107
13.8244	0.7537
13.6067	0.7981
13.3957	0.8469
13.1912	0.8762
12.9929	0.9094
12.8004	0.917
12.6135	0.9692
12.432	0.9668
12.2557	1.0085
12.0843	1.0107
11.9176	1.0334
11.7555	1.0525
11.5977	1.0664
11.444	1.052
11.2944	1.0891
11.1487	1.0696
11.0067	1.0854
10.8682	1.0952
10.7332	1.1172
10.6015	1.1274
10.473	1.1216
10.3476	1.1157
10.2251	1.1199
10.1056	1.1301
9.98873	1.1484
9.87458	1.1645
9.763	1.1941
9.65392	1.2185
9.54724	1.2498
9.44291	1.2861
9.34082	1.3391
9.24091	1.3936
9.14312	1.5293
9.04739	1.8757
8.95363	2.4145
8.8618	2.7305
8.77183	3.1199
8.68368	3.3555
8.59727	3.5222
8.51257	3.6811
8.42951	3.9814
8.34807	4.2695
8.26819	3.3625
8.18981	1.9746
8.11292	1.0493
8.03745	0.5657
7.96337	0.3486
7.89064	0.3035
7.81924	0.355
7.74911	0.4336
7.68023	0.5344
7.61256	0.6418
7.54608	0.7224
7.48074	0.8413
7.41653	0.9758
7.35341	1.1262
7.29136	1.2563
7.23034	1.3899
7.17033	1.5041
7.11132	1.6096
7.05327	1.7202
6.99616	1.8249
6.93996	1.9006
6.88467	1.9424
6.83024	1.9919
6.77667	2.0327
6.72393	2.0544
6.67201	2.0295
6.62089	1.9761
6.57054	1.8435
6.52095	1.7822
6.4721	1.7571
6.42398	1.7314
6.37657	1.6821
6.32986	1.5869
6.28382	1.4705
6.23845	1.2939
6.19373	1.0779
6.14965	1.0444
6.10619	0.8899
6.06334	1.0759
6.02109	1.1831
5.97942	1.1016
5.93832	0.8713
5.89778	1.1289
5.8578	1.5613
5.81835	1.8423
5.77943	2.074
5.74103	2.2937
5.70314	2.5268
5.66574	2.7219
5.62883	2.8931
5.5924	3.061
5.55644	3.2095
5.52093	3.4451
5.48588	3.6829
5.45127	3.8494
5.41709	3.9502
5.38334	4.0139
5.35	4.0625
5.31708	4.1318
5.28456	4.1807
5.25243	4.2522
5.2207	4.2756
5.18934	4.2351
5.15836	4.1457
5.12775	4.0835
5.09749	4.0398
5.0676	3.9875
5.03805	3.9685
5.00884	3.9495
4.97998	3.8032
4.95144	3.8564
4.92322	3.7871
4.89533	3.6362
4.86775	3.4634
4.84048	3.2817
4.81351	3.0334
4.78684	2.6379
4.76047	2.0344
4.73439	1.6008
4.70859	1.6257
4.68306	1.6543
4.65782	1.7432
4.63284	1.7593
4.60814	1.688
4.58369	1.5564
4.5595	1.4131
4.53557	1.3433
4.51188	1.3406
4.48845	1.3418
4.46525	1.3386
4.44229	1.3894
4.41957	1.4814
4.39708	1.6023
4.37481	1.7144
4.35277	1.8364
4.33096	1.9993
4.30935	2.2434
4.28797	2.5583
4.26679	2.8708
4.24583	3.1682
4.22506	3.4585
4.2045	3.73
4.18414	3.9795
4.16398	4.2197
4.14401	4.4387
4.12423	4.6667
4.10464	4.8899
4.08523	5.1186
4.066	5.3354
4.04696	5.5622
4.02809	5.7517
4.0094	5.9172
3.99088	5.9875
3.97253	5.9209
3.95435	6.2463
3.93634	6.467
3.91848	6.6062
3.90079	6.6863
3.88326	6.6467
3.86589	6.5661
3.84867	6.8103
3.8316	6.8618
3.81468	6.8686
3.79791	6.8547
3.78129	6.8362
3.76482	6.8288
3.74848	6.8105
3.73229	6.7644
3.71624	6.729
3.70032	6.7065
3.68454	6.6355
3.6689	6.5449
3.65338	6.4372
3.638	6.3237
3.62275	6.2029
3.60762	6.0588
3.59262	5.9026
3.57775	5.7605
3.56299	5.6545
3.54836	5.5461
3.53385	5.4609
3.51945	5.3701
3.50517	5.2703
3.49101	5.1562
3.47696	5.0332
3.46303	4.9087
3.4492	4.769
3.43549	4.615
3.42188	4.4787
3.40838	4.3415
3.39499	4.1814
3.38171	4.0076
3.36852	3.8279
3.35544	3.6572
3.34246	3.5066
3.32958	3.3494
3.3168	3.1775
3.30411	2.998
3.29153	2.8164
3.27903	2.6599
3.26664	2.5273
3.25433	2.4009
3.24212	2.2869
3.23	2.186
3.21797	2.0786
3.20603	1.9834
3.19418	1.8811
3.18241	1.7876
3.17074	1.675
3.15914	1.5576
3.14763	1.4609
3.13621	1.3574
3.12487	1.2871
3.11361	1.2288
3.10243	1.1536
3.09133	1.0627
3.0803	0.9719
3.06936	0.9873
3.0585	0.9666
3.04771	0.9531
3.037	0.9265
3.02636	0.8816
3.0158	0.8623
3.00531	0.8313
2.99489	0.8166
2.98454	0.7959
2.97427	0.7971
2.96407	0.7803
2.95393	0.7839
2.94387	0.8066
2.93387	0.8486
2.92394	0.8223
2.91408	0.7192
2.90429	0.616
2.89456	0.5525
2.88489	0.5205
2.87529	0.5032
2.86576	0.4531
2.85628	0.4597
2.84687	0.4751
2.83752	0.4897
2.82823	0.5154
2.81901	0.5332
2.80984	0.5437
2.80073	0.5542
2.79168	0.593
2.78269	0.5942
2.77376	0.6272
2.76488	0.6987
2.75606	0.8171
2.7473	0.9722
2.73859	1.1309
2.72994	1.3083
2.72134	1.4895
2.7128	1.7075
2.70431	1.96
2.69587	2.1814
2.68748	2.384
2.67915	2.553
2.67087	2.7251
2.66264	2.9448
2.65446	3.1223
2.64633	3.2808
2.63825	3.3999
2.63021	3.4658
2.62223	3.5332
2.6143	3.584
2.60641	3.6057
2.59857	3.6772
2.59078	3.6797
2.58304	3.7126
2.57534	3.7207
2.56768	3.7383
2.56008	3.7727
2.55251	3.8425
2.54499	3.9009
2.53752	3.9141
2.53009	3.9155
2.5227	3.8943
2.51536	3.8359
2.50806	3.7908
2.5008	3.7309
2.49358	3.6814
2.4864	3.6755
2.47927	3.6721
2.47218	3.7471
2.46512	3.8318
2.45811	3.926
2.45114	3.9858
2.4442	4.0037
2.43731	4.0466
2.43045	4.1265
2.42363	4.2556
2.41685	4.3606
2.41011	4.6108
2.40341	4.8979
2.39674	5.2888
2.39011	5.6548
2.38352	6.0215
2.37696	6.3511
2.37044	6.643
2.36395	6.8747
2.35751	7.0832
2.35109	7.2659
2.34471	7.4001
2.33836	7.5151
2.33205	7.6033
2.32578	7.6523
2.31953	7.7302
2.31332	7.7153
2.30714	7.7212
2.301	7.7239
2.29489	7.6745
2.28881	7.6408
2.28276	7.5346
2.27675	7.3652
2.27076	7.2431
2.26481	7.2226
2.25889	7.3174
2.253	7.3984
2.24714	7.4492
2.24131	7.3977
2.23551	7.3293
2.22974	7.219
2.224	6.9934
2.21829	6.8508
2.21261	6.9021
2.20696	7.0315
2.20134	7.1494
2.19574	7.2673
2.19018	7.2991
2.18464	7.3376
2.17913	7.3847
2.17365	7.4175
2.16819	7.4668
2.16277	7.5574
2.15737	7.6616
2.15199	7.7278
2.14665	7.811
2.14133	7.8913
2.13603	7.9753
2.13077	8.0376
2.12552	8.1015
2.12031	8.1972
2.11512	8.2793
2.10995	8.3994
2.10481	8.4885
2.0997	8.5464
2.09461	8.645
2.08954	8.7334
2.0845	8.7829
2.07948	8.8008
