Name: Hedenbergite CaFe+2Si2O6
Type: Mineral
Class: Silicates
Subclass: Inosilicates (Single chain Pyroxene Group)
Particle Size: Fine  (less than 2 Micrometers)
Sample No.: hedenber.1
Owner: JHU
Wavelength Range: IR
Origin: Eureka Mine, 2nd Level, Sub-level 1, 135 N, 645E, Ducktown,
Description: The sample was made up of three large pieces and three
Measurement: Transmission
X Units: Wavelength (micrometers)
Y Units: Transmittance (percent)
wavelength	value
25.0442	49.3007
24.3388	49.9022
23.6719	56.5936
23.0407	54.5741
22.4422	45.9081
21.8741	37.0097
21.334	33.0194
20.8199	33.6933
20.33	42.0477
19.8627	41.5468
19.4163	38.6337
18.9896	42.6366
18.5812	47.6991
18.19	57.0555
17.815	66.9012
17.4551	73.6678
17.1094	78.5291
16.7772	81.407
16.4576	81.9246
16.15	79.4353
15.8537	69.0452
15.568	76.0291
15.2925	85.012
15.0265	82.8025
14.7697	80.2693
14.5214	87.9529
14.2814	89.241
14.0492	89.448
13.8244	88.447
13.6067	87.1023
13.3957	85.0628
13.1912	82.6097
12.9929	79.9241
12.8004	76.762
12.6135	73.908
12.432	70.0784
12.2557	65.201
12.0843	58.6703
11.9176	49.41
11.7555	37.9965
11.5977	31.8163
11.444	34.2641
11.2944	40.2621
11.1487	44.1698
11.0067	44.0951
10.8682	41.3949
10.7332	51.2694
10.6015	52.5589
10.473	41.9662
10.3476	34.5392
10.2251	39.0824
10.1056	43.9218
9.98873	54.4862
9.87458	61.2852
9.763	61.412
9.65392	55.7318
9.54724	47.6261
9.44291	36.182
9.34082	28.2563
9.24091	31.0087
9.14312	34.497
9.04739	42.0233
8.95363	53.1454
8.8618	59.9554
8.77183	65.085
8.68368	68.9652
8.59727	71.9551
8.51257	74.1651
8.42951	76.2186
8.34807	78.1961
8.26819	79.9412
8.18981	81.3626
8.11292	82.6192
8.03745	83.699
7.96337	84.8948
7.89064	85.8506
7.81924	86.4817
7.74911	87.1487
7.68023	87.7344
7.61256	88.3379
7.54608	88.9153
7.48074	89.3943
7.41653	89.8352
7.35341	90.2129
7.29136	90.5291
7.23034	90.7449
7.17033	91.5144
7.11132	91.8211
7.05327	91.867
6.99616	92.1943
6.93996	92.6487
6.88467	92.7852
6.83024	92.7617
6.77667	92.8193
6.72393	92.8106
6.67201	92.916
6.62089	93.0315
6.57054	93.1721
6.52095	93.0859
6.4721	93.2092
6.42398	93.405
6.37657	93.5271
6.32986	93.6299
6.28382	93.8025
6.23845	93.8889
6.19373	94.085
6.14965	93.6126
6.10619	93.4685
6.06334	93.6914
6.02109	94.5186
5.97942	95.3967
5.93832	95.1863
5.89778	94.95
5.8578	94.9294
5.81835	95.0427
5.77943	95.0742
5.74103	95.0881
5.70314	95.0271
5.66574	94.9844
5.62883	94.9043
5.5924	94.8467
5.55644	94.7786
5.52093	94.748
5.48588	94.6619
5.45127	94.5322
5.41709	94.498
5.38334	94.3147
5.35	94.2878
5.31708	94.1875
5.28456	94.1238
5.25243	94.072
5.2207	94.0059
5.18934	93.9258
5.15836	93.793
5.12775	93.6445
5.09749	93.47
5.0676	93.3369
5.03805	93.4314
5.00884	93.449
4.97998	93.3933
4.95144	93.3162
4.92322	93.2432
4.89533	93.1924
4.86775	93.1387
4.84048	93.0398
4.81351	93.0501
4.78684	93.0449
4.76047	92.9072
4.73439	92.8367
4.70859	92.8171
4.68306	92.7503
4.65782	92.6697
4.63284	92.6221
4.60814	92.6628
4.58369	92.4539
4.5595	92.364
4.53557	92.29
4.51188	92.1924
4.48845	92.1397
4.46525	91.959
4.44229	91.8591
4.41957	91.752
4.39708	91.6943
4.37481	91.5996
4.35277	91.4473
4.33096	91.3884
4.30935	91.294
4.28797	91.1541
4.26679	91.0574
4.24583	91.0154
4.22506	90.8333
4.2045	90.7214
4.18414	90.6785
4.16398	90.5476
4.14401	90.3694
4.12423	90.3215
4.10464	90.2214
4.08523	90.0515
4.066	89.9685
4.04696	89.8113
4.02809	89.7644
4.0094	89.6497
3.99088	89.4705
3.97253	89.2966
3.95435	89.2664
3.93634	89.2151
3.91848	89.0525
3.90079	88.9822
3.88326	88.8103
3.86589	88.7107
3.84867	88.5969
3.8316	88.5393
3.81468	88.4177
3.79791	88.3167
3.78129	88.1917
3.76482	88.0701
3.74848	87.9065
3.73229	87.8401
3.71624	87.7337
3.70032	87.4671
3.68454	87.4168
3.6689	87.2781
3.65338	87.1946
3.638	87.0296
3.62275	86.9031
3.60762	86.8064
3.59262	86.7244
3.57775	86.5452
3.56299	86.4138
3.54836	86.2449
3.53385	86.1209
3.51945	85.9475
3.50517	85.9514
3.49101	85.7683
3.47696	85.5154
3.46303	85.4265
3.4492	85.2835
3.43549	85.2625
3.42188	85.2034
3.40838	84.9827
3.39499	84.7869
3.38171	84.8128
3.36852	84.8792
3.35544	84.5935
3.34246	84.5008
3.32958	84.3601
3.3168	84.2034
3.30411	84.1057
3.29153	84.0022
3.27903	83.885
3.26664	83.7771
3.25433	83.6565
3.24212	83.6287
3.23	83.4846
3.21797	83.3245
3.20603	83.1931
3.19418	83.0589
3.18241	82.9256
3.17074	82.7796
3.15914	82.5584
3.14763	82.4197
3.13621	82.2244
3.12487	82.135
3.11361	81.9803
3.10243	81.6565
3.09133	81.4046
3.0803	81.1365
3.06936	81.0232
3.0585	80.7835
3.04771	80.596
3.037	80.3538
3.02636	80.2386
3.0158	80.0642
3.00531	79.7464
2.99489	79.3904
2.98454	79.1541
2.97427	78.6307
2.96407	78.3143
2.95393	78.0721
2.94387	77.7986
2.93387	77.532
2.92394	77.2391
2.91408	77.1209
2.90429	77.1102
2.89456	77.0525
2.88489	76.8484
2.87529	76.7205
2.86576	76.6844
2.85628	76.5809
2.84687	76.6766
2.83752	76.6062
2.82823	76.7127
2.81901	76.9891
2.80984	77.0271
2.80073	77.1092
2.79168	77.1834
2.78269	77.2693
2.77376	77.3904
2.76488	77.5477
2.75606	77.657
2.7473	77.7244
2.73859	77.8211
2.72994	77.5896
2.72134	77.5213
2.7128	77.533
2.70431	77.4617
2.69587	77.4705
2.68748	77.3455
2.67915	77.2156
2.67087	77.2381
2.66264	77.1111
2.65446	76.949
2.64633	76.7967
2.63825	76.7264
2.63021	76.5828
2.62223	76.4373
2.6143	76.4266
2.60641	76.2049
2.59857	76.1678
2.59078	76.0828
2.58304	76.0682
2.57534	75.8045
2.56768	75.6229
2.56008	75.6385
2.55251	75.4813
2.54499	75.2303
2.53752	75.367
2.53009	75.1219
2.5227	74.7547
2.51536	74.6648
2.50806	74.6014
2.5008	74.3592
2.49358	74.3592
2.4864	74.3523
2.47927	74.115
2.47218	74.1014
2.46512	73.992
2.45811	73.7752
2.45114	73.658
2.4442	73.5779
2.43731	73.3162
2.43045	73.2947
2.42363	73.1424
2.41685	73.0994
2.41011	72.8533
2.40341	72.869
2.39674	72.7361
2.39011	72.5486
2.38352	72.5233
2.37696	72.2479
2.37044	72.3045
2.36395	72.2752
2.35751	72.1365
2.35109	71.9998
2.34471	71.8162
2.33836	71.783
2.33205	71.6268
2.32578	71.3553
2.31953	71.5565
2.31332	71.4471
2.30714	71.1424
2.301	71.0311
2.29489	71.2889
2.28881	71.0096
2.28276	70.6639
2.27675	70.5174
2.27076	70.4803
2.26481	70.6678
2.25889	70.4393
2.253	70.1795
2.24714	70.3611
2.24131	70.1444
2.23551	70.0428
2.22974	70.0252
2.224	69.8846
2.21829	69.8319
2.21261	69.8611
2.20696	69.5506
2.20134	69.5623
2.19574	69.5721
2.19018	69.3514
2.18464	69.2733
2.17913	69.1912
2.17365	69.1951
2.16819	69.0076
2.16277	69.0701
2.15737	68.8768
2.15199	68.6795
2.14665	68.7654
2.14133	69.1268
2.13603	68.8612
2.13077	68.6092
2.12552	68.619
2.12031	68.4139
2.11512	68.6737
2.10995	68.4627
2.10481	68.3455
2.0997	68.8123
2.09461	68.6014
2.08954	68.3045
2.0845	68.283
2.07948	68.4998
