Name: Alkalic Granite
Type: Rocks
Class: Igneous
Subclass: Felsic
Particle Size: Solid
Sample No.: Granite.H1
Owner: JHU
Origin: From Quincy, Norfolk, Massachusetts via Ward's Scientific (Cat.
Description: A gray, medium- to coarse-grained rock composed of quartz,
Measurement: Directional (10 degree) hemispherical reflectance
X Units: Wavelength (micrometers)
Y Units: Reflectance (percent)
wavelength	value
14.011	7.2712
13.715	6.7969
13.43	5.5462
13.158	6.5109
12.896	8.0564
12.644	6.1566
12.402	5.9672
12.169	3.5184
11.945	4.4602
11.729	5.2645
11.52	5.8746
11.319	6.3077
11.125	6.888
10.937	7.5494
10.756	8.4016
10.58	9.4692
10.41	10.7531
10.245	12.9506
10.086	16.3333
9.931	19.8733
9.781	20.1878
9.636	22.0413
9.495	23.5119
9.358	27.5868
9.225	30.5336
9.095	28.3051
8.969	26.6001
8.847	28.4319
8.727	28.2285
8.612	23.4363
8.499	27.816
8.389	26.6669
8.281	23.4712
8.177	18.9794
8.075	10.4753
7.976	5.2556
7.879	2.5823
7.784	1.6254
7.692	1.1465
7.601	0.9176
7.513	0.8096
7.427	0.7875
7.343	0.8499
7.261	0.922
7.18	1.0164
7.102	1.1142
7.025	1.2197
6.949	1.2949
6.875	1.3428
6.803	1.4337
6.733	1.4709
6.663	1.5769
6.596	1.6118
6.529	1.6922
6.464	1.7414
6.4	1.8065
6.338	1.8347
6.276	1.8278
6.216	1.8276
6.157	1.8636
6.099	1.9568
6.042	2.0285
5.986	2.0538
5.931	2.0733
5.878	2.148
5.825	2.254
5.773	2.2903
5.722	2.3494
5.672	2.3979
5.623	2.3981
5.574	2.4413
5.527	2.5013
5.48	2.64
5.434	2.6784
5.389	2.722
5.345	2.7296
5.301	2.7703
5.258	2.8535
5.215	2.9447
5.174	3.0644
5.133	3.126
5.093	3.2592
5.053	3.2771
5.014	3.3811
4.975	3.4676
4.937	3.5943
4.9	3.7057
4.863	3.9893
4.827	4.199
4.791	4.2579
4.756	4.4208
4.721	4.5267
4.687	4.4522
4.654	4.6186
4.62	4.9462
4.588	5.1251
4.556	5.2306
4.524	5.2122
4.492	5.142
4.461	5.2711
4.431	5.4534
4.401	5.7371
4.371	6.0719
4.342	6.3663
4.313	6.601
4.284	6.7153
4.256	6.9166
4.229	7.0664
4.201	7.2108
4.174	7.3633
4.147	7.4934
4.121	7.6621
4.095	7.8106
4.069	7.9188
4.044	7.9781
4.019	8.0332
3.994	8.1012
3.97	8.1595
3.945	8.299
3.921	8.4098
3.898	8.4215
3.875	8.4251
3.852	8.4605
3.829	8.5605
3.806	8.6217
3.784	8.6514
3.762	8.6498
3.74	8.662
3.719	8.7135
3.698	8.7949
3.677	8.9137
3.656	8.9545
3.636	8.9657
3.615	8.9873
3.595	8.947
3.575	8.9418
3.556	8.9236
3.536	8.846
3.517	8.6353
3.498	8.3052
3.479	8.4278
3.461	8.3688
3.442	8.1584
3.424	7.6652
3.406	7.6329
3.388	7.7379
3.371	7.7412
3.353	7.7963
3.336	7.7168
3.319	7.6127
3.302	7.4974
3.285	7.3308
3.269	7.1927
3.252	7.0186
3.236	6.8496
3.22	6.6974
3.204	6.5268
3.188	6.4008
3.173	6.2121
3.157	6.1385
3.142	5.9749
3.127	5.9055
3.112	5.8015
3.097	5.714
3.082	5.719
3.067	5.5997
3.053	5.5654
3.039	5.5746
3.025	5.4878
3.011	5.5385
2.997	5.4825
2.983	5.4785
2.969	5.4668
2.956	5.4649
2.942	5.4849
2.929	5.4392
2.916	5.5481
2.903	5.6702
2.89	5.6934
2.877	5.828
2.864	5.8441
2.852	5.8875
2.839	6.0037
2.827	6.1763
2.814	6.2402
2.802	6.4036
2.79	6.5334
2.778	6.7335
2.766	6.8325
2.755	7.206
2.743	7.7325
2.731	8.5945
2.72	9.6213
2.708	10.5122
2.697	11.3264
2.686	11.9268
2.675	12.1997
2.664	12.356
2.653	12.3605
2.642	12.4556
2.632	12.5329
2.621	12.6874
2.61	12.6257
2.6	12.7221
2.59	12.7439
2.579	12.7368
2.569	12.8186
2.559	12.7668
2.549	12.84
2.539	12.8231
2.529	12.8348
2.519	12.9205
2.509	12.8236
2.5	12.9225
2.49	12.9778
2.481	13.0743
2.471	13.086
2.462	13.1737
2.452	13.214
2.443	13.3213
2.434	13.297
2.425	13.2684
2.416	13.326
2.407	13.3758
2.398	13.3973
2.389	13.4868
2.38	13.4413
2.372	13.521
2.363	13.4812
2.354	13.5314
2.346	13.4667
2.337	13.4843
2.329	13.5302
2.321	13.702
2.312	13.6329
2.304	13.7243
2.296	13.8592
2.288	13.7774
2.28	13.8457
2.272	13.7953
2.264	13.9317
2.256	13.8839
2.248	13.8194
2.24	13.8764
2.233	13.8792
2.225	13.8945
2.217	13.9364
2.21	13.8255
2.202	13.9303
2.195	13.9476
2.187	13.9041
2.18	13.9596
2.173	13.9192
2.166	13.9737
2.158	13.9561
2.151	13.957
2.144	13.9108
2.137	13.9865
2.13	13.8855
2.123	13.9308
2.116	13.9312
2.109	13.9275
2.102	13.8424
2.095	13.8633
2.089	13.9399
2.082	13.8919
2.06	13.6912
2.028	13.7259
1.996	13.4994
1.964	13.3435
1.932	13.1107
1.9	13.6343
1.868	14.2849
1.836	14.4897
1.804	14.4816
1.772	14.5362
1.74	14.6796
1.708	14.6852
1.676	14.7736
1.644	14.8681
1.612	14.9042
1.58	14.9884
1.548	15.015
1.516	15.0085
1.484	14.7577
1.452	15.0457
1.42	15.0005
1.388	14.8959
1.356	15.1974
1.324	15.3633
1.292	15.3297
1.26	15.416
1.228	15.1665
1.196	15.3006
1.164	15.3459
1.132	15.331
1.1	15.4516
1.068	15.5328
1.036	15.416
1.004	15.6181
0.972	15.7586
0.94	15.9171
0.908	16.0865
0.876	15.9104
0.844	16.1108
0.812	16.4529
0.795	16.1019
0.787	16.383
0.779	15.9922
0.771	16.039
0.763	16.1654
0.755	16.116
0.747	16.4387
0.739	16.1375
0.731	16.1384
0.723	16.2323
0.715	16.3725
0.707	16.3731
0.699	16.2797
0.691	16.0538
0.683	16.0293
0.675	16.3756
0.667	16.1582
0.659	16.7541
0.651	16.4441
0.643	16.8477
0.635	16.7501
0.627	16.6358
0.619	16.603
0.611	16.9718
0.603	17.0347
0.595	16.8941
0.587	16.9732
0.579	17.1295
0.571	16.994
0.563	17.1029
0.555	17.0925
0.547	17.0238
0.539	17.2246
0.531	17.0333
0.523	16.9105
0.515	16.7953
0.507	16.394
0.499	16.7417
0.491	16.2366
0.483	16.4159
0.475	15.9795
0.467	15.6906
0.459	15.6121
0.451	15.3246
0.443	15.3958
0.435	14.8592
0.427	14.5913
0.419	14.1264
0.411	13.4665
0.403	13.0549
