Name: Jadeite Na(Al,Fe+3)Si2O6
Type: Mineral
Class: Silicates
Subclass: Inosilicates (Chain Silicates; Pyroxene Group)
Particle Size: Coarse  (74-250  micrometers)
Sample No.: jadeite.1
Owner: JHU
Wavelength Range: IR
Origin: Tibet, China via the Smithsonian (sample no. NMNH B18463).
Description: The sample was a single 1 cm x 4 cm piece weighing 11.5
Measurement: Bidirectional reflectance
X Units: Wavelength (micrometers)
Y Units: Reflectance (percent)
wavelength	value
25.0442	5.7778
24.3388	4.1846
23.6719	5.1037
23.0407	6.1418
22.4422	5.2344
21.8741	6.7456
21.334	8.0014
20.8199	8.635
20.33	7.2229
19.8627	7.2231
19.4163	7.7436
18.9896	8.185
18.5812	8.5886
18.19	6.6907
17.815	6.7217
17.4551	8.0432
17.1094	9.5661
16.7772	9.4045
16.4576	8.3818
16.15	6.7944
15.8537	5.4744
15.568	3.0276
15.2925	1.6985
15.0265	2.0349
14.7697	1.7136
14.5214	1.124
14.2814	1.3511
14.0492	1.5464
13.8244	1.6909
13.6067	1.863
13.3957	1.9871
13.1912	1.8347
12.9929	2.0322
12.8004	2.1177
12.6135	2.2312
12.432	2.3308
12.2557	2.4006
12.0843	2.5518
11.9176	2.7302
11.7555	3.061
11.5977	2.9001
11.444	2.813
11.2944	3.2002
11.1487	3.5915
11.0067	3.9873
10.8682	4.3354
10.7332	4.7034
10.6015	4.9409
10.473	5.189
10.3476	5.394
10.2251	5.1767
10.1056	5.1518
9.98873	5.3059
9.87458	5.6868
9.763	6.1587
9.65392	6.7873
9.54724	7.956
9.44291	8.1528
9.34082	9.9807
9.24091	10.2497
9.14312	10.4065
9.04739	10.2505
8.95363	8.7033
8.8618	7.5364
8.77183	7.0705
8.68368	6.9414
8.59727	6.811
8.51257	6.7417
8.42951	6.0398
8.34807	4.8083
8.26819	3.614
8.18981	2.6199
8.11292	1.7571
8.03745	1.0188
7.96337	0.623
7.89064	0.6089
7.81924	0.7053
7.74911	0.8079
7.68023	0.9307
7.61256	1.0203
7.54608	1.0986
7.48074	1.1885
7.41653	1.2947
7.35341	1.4011
7.29136	1.4697
7.23034	1.5022
7.17033	1.5312
7.11132	1.5542
7.05327	1.5974
6.99616	1.709
6.93996	1.8135
6.88467	2.0002
6.83024	2.1719
6.77667	2.2776
6.72393	2.3413
6.67201	2.3303
6.62089	2.3049
6.57054	2.2339
6.52095	2.208
6.4721	2.2725
6.42398	2.2844
6.37657	2.2861
6.32986	2.3845
6.28382	2.4988
6.23845	2.5764
6.19373	2.5789
6.14965	2.3777
6.10619	2.3547
6.06334	2.3337
6.02109	2.228
5.97942	2.2991
5.93832	2.4822
5.89778	2.5837
5.8578	2.5439
5.81835	2.3506
5.77943	2.0073
5.74103	1.7375
5.70314	1.6865
5.66574	1.7229
5.62883	1.7803
5.5924	1.8035
5.55644	1.9272
5.52093	2.009
5.48588	2.0261
5.45127	2.1584
5.41709	2.55
5.38334	3.1028
5.35	3.5117
5.31708	3.8345
5.28456	3.8935
5.25243	3.9082
5.2207	3.978
5.18934	4.0786
5.15836	4.1841
5.12775	4.1057
5.09749	4.0449
5.0676	4.154
5.03805	4.1706
5.00884	4.1872
4.97998	4.1843
4.95144	4.2204
4.92322	4.281
4.89533	4.5542
4.86775	5.0774
4.84048	5.4619
4.81351	5.5596
4.78684	5.5959
4.76047	5.9609
4.73439	6.5268
4.70859	6.7226
4.68306	6.7314
4.65782	6.6387
4.63284	6.5998
4.60814	6.9509
4.58369	7.5256
4.5595	8.4436
4.53557	9.4419
4.51188	10.395
4.48845	11.1604
4.46525	11.6003
4.44229	11.9265
4.41957	12.2683
4.39708	12.5571
4.37481	12.7256
4.35277	12.8464
4.33096	12.9467
4.30935	13.0153
4.28797	13.0778
4.26679	13.1499
4.24583	13.198
4.22506	13.2212
4.2045	13.2402
4.18414	13.2732
4.16398	13.2944
4.14401	13.3039
4.12423	13.3086
4.10464	13.3208
4.08523	13.3498
4.066	13.3733
4.04696	13.3825
4.02809	13.4067
4.0094	13.4096
3.99088	13.438
3.97253	13.5127
3.95435	13.6069
3.93634	13.7031
3.91848	13.7793
3.90079	13.8476
3.88326	13.8781
3.86589	13.9096
3.84867	13.9616
3.8316	14.0388
3.81468	14.114
3.79791	14.1755
3.78129	14.2226
3.76482	14.2536
3.74848	14.2722
3.73229	14.2758
3.71624	14.2605
3.70032	14.2353
3.68454	14.2487
3.6689	14.259
3.65338	14.279
3.638	14.2912
3.62275	14.2964
3.60762	14.3071
3.59262	14.3291
3.57775	14.3208
3.56299	14.3283
3.54836	14.3171
3.53385	14.3005
3.51945	14.2861
3.50517	14.2434
3.49101	14.218
3.47696	14.2163
3.46303	14.228
3.4492	14.1994
3.43549	14.1369
3.42188	14.0805
3.40838	14.0158
3.39499	14.019
3.38171	14.0224
3.36852	14.0009
3.35544	13.9907
3.34246	13.9641
3.32958	13.9204
3.3168	13.8469
3.30411	13.811
3.29153	13.7617
3.27903	13.7002
3.26664	13.6479
3.25433	13.6069
3.24212	13.54
3.23	13.5039
3.21797	13.4389
3.20603	13.3764
3.19418	13.2766
3.18241	13.1804
3.17074	13.0551
3.15914	12.9214
3.14763	12.8029
3.13621	12.7165
3.12487	12.6657
3.11361	12.5918
3.10243	12.4953
3.09133	12.4079
3.0803	12.3359
3.06936	12.2336
3.0585	12.1115
3.04771	11.9904
3.037	11.8042
3.02636	11.5649
3.0158	11.2475
3.00531	11.105
2.99489	11.2109
2.98454	11.289
2.97427	11.2661
2.96407	11.1762
2.95393	11.0049
2.94387	10.8513
2.93387	10.6653
2.92394	10.4868
2.91408	10.2585
2.90429	10.0337
2.89456	9.7785
2.88489	9.5263
2.87529	9.3161
2.86576	9.1499
2.85628	8.9812
2.84687	8.6968
2.83752	8.2217
2.82823	7.6802
2.81901	7.4678
2.80984	7.707
2.80073	8.1853
2.79168	8.3948
2.78269	8.3525
2.77376	8.1242
2.76488	7.9221
2.75606	8.4978
2.7473	9.7727
2.73859	11.2505
2.72994	12.1794
2.72134	12.6438
2.7128	13.0949
2.70431	13.5078
2.69587	14.0805
2.68748	14.6352
2.67915	14.937
2.67087	15.0932
2.66264	15.2729
2.65446	15.3669
2.64633	15.4172
2.63825	15.4917
2.63021	15.4985
2.62223	15.5844
2.6143	15.603
2.60641	15.5622
2.59857	15.6181
2.59078	15.5986
2.58304	15.551
2.57534	15.5698
2.56768	15.53
2.56008	15.4824
2.55251	15.4692
2.54499	15.4284
2.53752	15.415
2.53009	15.4389
2.5227	15.4433
2.51536	15.4741
2.50806	15.4931
2.5008	15.4956
2.49358	15.4848
2.4864	15.5009
2.47927	15.5571
2.47218	15.5944
2.46512	15.5351
2.45811	15.6469
2.45114	15.7036
2.4442	15.7041
2.43731	15.7524
2.43045	15.7578
2.42363	15.7683
2.41685	15.8112
2.41011	15.8955
2.40341	15.832
2.39674	15.8332
2.39011	15.8357
2.38352	15.8593
2.37696	15.8481
2.37044	15.8413
2.36395	15.8808
2.35751	15.8535
2.35109	15.8178
2.34471	15.8144
2.33836	15.7778
2.33205	15.788
2.32578	15.7861
2.31953	15.8144
2.31332	15.7631
2.30714	15.7563
2.301	15.7651
2.29489	15.7426
2.28881	15.7941
2.28276	15.7426
2.27675	15.7668
2.27076	15.7109
2.26481	15.749
2.25889	15.7461
2.253	15.7407
2.24714	15.6787
2.24131	15.6958
2.23551	15.7275
2.22974	15.6909
2.224	15.6816
2.21829	15.7158
2.21261	15.6591
2.20696	15.601
2.20134	15.604
2.19574	15.6477
2.19018	15.6113
2.18464	15.6562
2.17913	15.6721
2.17365	15.6953
2.16819	15.6982
2.16277	15.771
2.15737	15.7522
2.15199	15.6691
2.14665	15.6447
2.14133	15.6933
2.13603	15.7949
2.13077	15.7368
2.12552	15.7395
2.12031	15.802
2.11512	15.7395
2.10995	15.7734
2.10481	15.789
2.0997	15.7461
2.09461	15.8554
2.08954	15.8466
2.0845	15.8566
2.07948	15.7805
