Name: Granite
Type: Rocks
Class: Igneous
Subclass: Felsic
Particle Size: Solid
Sample No.: Granite.H2
Owner: JHU
Origin: From Santa Rita Mountains, Arizona via Smithsonian (Cat. No.
Description: A gray, medium-grained rock consisting of white
Measurement: Directional (10 degree) hemispherical reflectance
X Units: Wavelength (micrometers)
Y Units: Reflectance (percent)
wavelength	value
14.011	5.9681
13.715	5.894
13.43	3.727
13.158	5.6194
12.896	7.2829
12.644	5.6049
12.402	5.6133
12.169	3.4502
11.945	4.3502
11.729	5.0431
11.52	5.9161
11.319	6.4455
11.125	7.0784
10.937	7.9844
10.756	8.6332
10.58	9.6452
10.41	11.4703
10.245	14.3339
10.086	18.0735
9.931	22.3064
9.781	23.2405
9.636	27.3698
9.495	29.482
9.358	33.91
9.225	36.1981
9.095	34.1174
8.969	32.3549
8.847	34.0713
8.727	34.5137
8.612	29.1576
8.499	33.8385
8.389	31.7188
8.281	27.1898
8.177	21.3766
8.075	12.1
7.976	6.2564
7.879	2.9044
7.784	1.6198
7.692	1.0528
7.601	0.7709
7.513	0.5953
7.427	0.6468
7.343	0.7259
7.261	0.7425
7.18	0.8672
7.102	1.0289
7.025	1.0699
6.949	1.148
6.875	1.2701
6.803	1.2457
6.733	1.2925
6.663	1.4724
6.596	1.4885
6.529	1.4733
6.464	1.6296
6.4	1.6434
6.338	1.6039
6.276	1.6629
6.216	1.6577
6.157	1.6589
6.099	1.7953
6.042	1.8501
5.986	1.8574
5.931	1.9097
5.878	2.0151
5.825	2.0398
5.773	2.1037
5.722	2.1787
5.672	2.1663
5.623	2.1438
5.574	2.1853
5.527	2.2514
5.48	2.3522
5.434	2.4774
5.389	2.4778
5.345	2.5059
5.301	2.5704
5.258	2.5898
5.215	2.7382
5.174	2.9086
5.133	3.0101
5.093	3.1643
5.053	3.282
5.014	3.3197
4.975	3.4221
4.937	3.5871
4.9	3.656
4.863	3.9485
4.827	4.1993
4.791	4.2473
4.756	4.3659
4.721	4.5464
4.687	4.4433
4.654	4.6425
4.62	5.0147
4.588	5.2568
4.556	5.4283
4.524	5.5094
4.492	5.3995
4.461	5.5596
4.431	5.9602
4.401	6.3534
4.371	6.8288
4.342	7.4413
4.313	7.8642
4.284	8.0594
4.256	8.5478
4.229	8.9491
4.201	9.1439
4.174	9.5475
4.147	9.966
4.121	10.2286
4.095	10.6008
4.069	11.0343
4.044	11.0205
4.019	10.8914
3.994	10.9596
3.97	11.0402
3.945	11.4834
3.921	11.9831
3.898	12.0462
3.875	11.9076
3.852	12.0553
3.829	12.3
3.806	12.4638
3.784	12.5636
3.762	12.536
3.74	12.3541
3.719	12.4906
3.698	12.8364
3.677	12.9366
3.656	13.0561
3.636	13.1561
3.615	12.9065
3.595	12.7429
3.575	12.7223
3.556	12.4914
3.536	12.183
3.517	11.9327
3.498	11.4131
3.479	11.0564
3.461	11.0109
3.442	10.6636
3.424	9.9449
3.406	9.7062
3.388	9.5341
3.371	9.0942
3.353	8.9142
3.336	8.7021
3.319	8.2481
3.302	7.8928
3.285	7.6812
3.269	7.2876
3.252	6.8981
3.236	6.7734
3.22	6.4038
3.204	6.0729
3.188	5.9634
3.173	5.7096
3.157	5.4023
3.142	5.348
3.127	5.1492
3.112	4.9434
3.097	4.9428
3.082	4.874
3.067	4.733
3.053	4.7177
3.039	4.7386
3.025	4.5813
3.011	4.5771
2.997	4.5584
2.983	4.4294
2.969	4.436
2.956	4.4243
2.942	4.3748
2.929	4.4205
2.916	4.4784
2.903	4.4772
2.89	4.5588
2.877	4.6849
2.864	4.6634
2.852	4.8349
2.839	4.9889
2.827	4.9429
2.814	5.1691
2.802	5.2772
2.79	5.2392
2.778	5.3397
2.766	5.4553
2.755	5.5382
2.743	6.0853
2.731	7.0333
2.72	8.2675
2.708	9.5119
2.697	12.0412
2.686	14.3913
2.675	15.7692
2.664	16.852
2.653	17.3296
2.642	17.6029
2.632	18.1553
2.621	18.3187
2.61	18.2899
2.6	18.7422
2.59	18.8317
2.579	18.6018
2.569	18.9443
2.559	19.0659
2.549	18.6609
2.539	18.9323
2.529	19.177
2.519	18.8261
2.509	19.022
2.5	19.3786
2.49	19.0809
2.481	19.2487
2.471	19.7732
2.462	19.4995
2.452	19.447
2.443	20.0043
2.434	19.9732
2.425	19.9256
2.416	20.5358
2.407	20.5884
2.398	20.4951
2.389	20.848
2.38	20.9791
2.372	20.815
2.363	21.0576
2.354	21.1363
2.346	20.955
2.337	21.2924
2.329	21.6304
2.321	21.6013
2.312	21.8362
2.304	22.1202
2.296	22.1366
2.288	22.2295
2.28	22.4357
2.272	22.3223
2.264	22.4353
2.256	22.4155
2.248	22.3539
2.24	22.3694
2.233	22.3912
2.225	22.1672
2.217	21.9768
2.21	21.6449
2.202	21.674
2.195	21.9036
2.187	22.2822
2.18	22.348
2.173	22.7207
2.166	22.9464
2.158	22.7957
2.151	23.0763
2.144	23.3226
2.137	23.0676
2.13	23.2312
2.123	23.6062
2.116	23.1712
2.109	23.1815
2.102	23.6516
2.095	23.2757
2.089	23.2012
2.082	23.7355
2.06	23.5941
2.028	23.3354
1.996	22.9721
1.964	22.2576
1.932	21.7341
1.9	21.9526
1.868	24.2257
1.836	24.6667
1.804	24.8025
1.772	24.8614
1.74	24.9978
1.708	25.1597
1.676	25.26
1.644	25.2113
1.612	25.5165
1.58	25.4165
1.548	25.3488
1.516	25.4449
1.484	25.3128
1.452	25.1111
1.42	25.1196
1.388	25.3744
1.356	26.0177
1.324	26.4388
1.292	26.3903
1.26	26.6961
1.228	26.5526
1.196	26.8306
1.164	26.9696
1.132	27.2379
1.1	26.9736
1.068	27.4335
1.036	27.281
1.004	27.1558
0.972	26.9851
0.94	26.644
0.908	26.5607
0.876	26.5151
0.844	26.6451
0.812	27.2776
0.795	27.5128
0.787	27.4295
0.779	27.7322
0.771	27.4812
0.763	27.5953
0.755	27.668
0.747	27.393
0.739	27.3014
0.731	27.1194
0.723	27.0087
0.715	26.6107
0.707	26.3654
0.699	26.1947
0.691	26.0631
0.683	25.813
0.675	25.44
0.667	25.2159
0.659	25.0127
0.651	24.7779
0.643	24.5596
0.635	24.162
0.627	24.047
0.619	23.8663
0.611	23.6402
0.603	23.1449
0.595	22.9389
0.587	22.3048
0.579	21.6028
0.571	20.9476
0.563	20.2085
0.555	19.3063
0.547	18.5913
0.539	18.0001
0.531	17.6525
0.523	17.2196
0.515	16.8488
0.507	16.7582
0.499	16.3326
0.491	16.0031
0.483	15.6683
0.475	15.4475
0.467	15.4434
0.459	14.9064
0.451	14.7383
0.443	14.4264
0.435	14.1593
0.427	13.637
0.419	13.0856
0.411	12.8168
0.403	12.3889
