Name: Plate Window Glass
Type: Manmade materials
Class: General Construction Materials
Subclass: Glass
Particle Size: Solid
Sample No.: 0796UUUGLS
Owner: National Photographic Interpretation Center
Wavelength Range: All
Origin: Spectra obtained from the Noncoventional Exploitation Factors
Description: Unweathered, transparent construction plate window
Measurement: Directional (10 Degree) Hemispherical Reflectance
X Units: Wavelength (micrometers)
Y Units: Reflectance (percent)
wavelength	value
0.3	5.82
0.304	5.77
0.308	5.74
0.312	5.74
0.316	5.75
0.32	5.81
0.324	5.89
0.328	6.1
0.332	6.52
0.336	7.2
0.34	8.07
0.344	9.01
0.348	9.89
0.352	10.61
0.356	11.18
0.36	11.59
0.364	11.85
0.368	11.95
0.372	11.87
0.376	11.66
0.38	11.52
0.384	11.65
0.388	11.87
0.392	12.03
0.396	12.11
0.4	12.13
0.404	12.1
0.408	12.04
0.412	11.97
0.416	11.91
0.42	11.87
0.424	11.84
0.428	11.81
0.432	11.77
0.436	11.74
0.44	11.72
0.444	11.72
0.448	11.72
0.452	11.73
0.456	11.74
0.46	11.75
0.464	11.75
0.468	11.74
0.472	11.73
0.476	11.72
0.48	11.71
0.484	11.7
0.488	11.68
0.492	11.66
0.496	11.64
0.5	11.63
0.504	11.62
0.508	11.61
0.512	11.59
0.516	11.57
0.52	11.55
0.524	11.53
0.528	11.51
0.532	11.49
0.536	11.47
0.54	11.44
0.544	11.42
0.548	11.4
0.552	11.37
0.556	11.34
0.56	11.32
0.564	11.29
0.568	11.26
0.572	11.22
0.576	11.19
0.58	11.15
0.584	11.12
0.588	11.08
0.592	11.05
0.596	11.01
0.6	10.98
0.604	10.94
0.608	10.9
0.612	10.86
0.616	10.82
0.62	10.78
0.624	10.74
0.628	10.7
0.632	10.65
0.636	10.61
0.64	10.57
0.644	10.53
0.648	10.49
0.652	10.45
0.656	10.41
0.66	10.37
0.664	10.33
0.668	10.29
0.672	10.25
0.676	10.21
0.68	10.16
0.684	10.11
0.688	10.07
0.692	10.02
0.696	9.98
0.7	9.94
0.704	9.9
0.708	9.85
0.712	9.8
0.716	9.76
0.72	9.71
0.724	9.66
0.728	9.62
0.732	9.58
0.736	9.53
0.74	9.49
0.744	9.45
0.748	9.41
0.752	9.36
0.756	9.32
0.76	9.28
0.764	9.24
0.768	9.19
0.772	9.15
0.776	9.12
0.78	9.08
0.784	9.04
0.788	9
0.792	8.97
0.796	8.94
0.8	8.9
0.84	8.59
0.88	8.42
0.92	8.19
0.96	7.73
1	7.69
1.04	7.64
1.08	7.65
1.12	7.64
1.16	7.65
1.2	7.69
1.24	7.74
1.28	7.82
1.32	7.91
1.36	7.98
1.4	8.11
1.44	8.28
1.48	8.46
1.52	8.58
1.56	8.71
1.6	8.79
1.64	8.82
1.68	8.83
1.72	8.9
1.76	8.85
1.8	8.86
1.84	8.76
1.88	8.69
1.92	8.68
1.96	8.7
2	8.7
2.04	8.67
2.08	8.59
2.12	8.62
2.16	8.6
2.2	8.44
2.24	8.45
2.28	7.8107
2.32	8.5598
2.36	8.3839
2.4	8.7093
2.44	8.2047
2.48	8.3425
2.52	8.2243
2.56	8.0975
2.6	8.1136
2.64	7.9338
2.68	7.5083
2.72	5.8339
2.76	4.1633
2.8	3.7978
2.84	3.8268
2.88	3.8729
2.92	3.8434
2.96	4.222
3	3.7307
3.04	3.8956
3.08	3.9253
3.12	4.1405
3.16	3.8721
3.2	3.985
3.24	4.0252
3.28	3.9036
3.32	3.7719
3.36	3.8785
3.4	3.7551
3.44	3.6067
3.48	3.6414
3.52	3.6218
3.56	3.3412
3.6	3.3186
3.64	3.4509
3.68	3.484
3.72	3.4266
3.76	3.7002
3.8	3.5883
3.84	3.4274
3.88	3.6191
3.92	3.5739
3.96	3.4465
4	3.5491
4.04	3.5688
4.08	3.686
4.12	3.5431
4.16	3.5029
4.2	3.5499
4.24	3.3008
4.28	3.382
4.32	3.3205
4.36	3.3686
4.4	3.3675
4.44	3.3728
4.48	3.2981
4.52	3.3445
4.56	3.2011
4.6	3.2855
4.64	3.3581
4.68	3.2921
4.72	3.209
4.76	3.325
4.8	3.1685
4.84	3.1735
4.88	3.2642
4.92	3.2419
4.96	3.1964
5	3.0459
5.2	2.9278
5.4	2.8835
5.6	2.6198
5.8	2.5017
6	2.4418
6.2	2.177
6.4	1.9712
6.6	1.5729
6.8	1.4623
7	1.0906
7.2	0.8375
7.4	0.515
7.6	0.2561
7.8	0
8	0.484
8.2	3.8054
8.4	8.9286
8.6	13.4084
8.8	17.1294
9	21.123
9.2	26.131
9.4	29.014
9.6	28.2778
9.8	25.8254
10	23.3709
10.2	21.355
10.4	19.8071
10.6	18.2772
10.8	16.3555
11	14.3981
11.2	12.3074
11.4	10.7518
11.6	9.5534
11.8	7.9373
12	6.9371
12.2	6.7553
12.4	6.5395
12.6	7.2216
12.8	7.6577
13	7.91
13.2	7.8447
13.4	7.9203
13.6	7.4664
13.8	7.0486
14	7.003
