Name: Quartz SiO2
Type: Mineral
Class: Silicates
Subclass: Tectosilicates (Silica Group)
Particle Size: Coarse  (75 - 250  Micrometers)
Sample No.: quartz.1
Owner: JHU
Wavelength Range: IR
Origin: Brazil, via Bruce Hemingway, USGS
Description: The hand sample appeared entirely pure, being a clear
Measurement: Bidirectional reflectance
X Units: Wavelength (micrometers)
Y Units: Reflectance (percent)
wavelength	value
25.0442	3.6894
24.3388	1.3223
23.6719	1.9429
23.0407	2.479
22.4422	3.8257
21.8741	6.3481
21.334	7.9404
20.8199	9.2429
20.33	10.0737
19.8627	9.5888
19.4163	4.1821
18.9896	2.1636
18.5812	3.0762
18.19	3.6575
17.815	1.6792
17.4551	0.7378
17.1094	0.9392
16.7772	1.0449
16.4576	1.1228
16.15	1.126
15.8537	1.2373
15.568	1.2068
15.2925	1.2268
15.0265	1.2134
14.7697	1.2612
14.5214	1.3621
14.2814	1.0039
14.0492	1.1836
13.8244	1.3169
13.6067	1.3997
13.3957	1.4893
13.1912	1.6357
12.9929	2.0142
12.8004	3.2248
12.6135	2.3877
12.432	2.9026
12.2557	0.55
12.0843	0.8164
11.9176	1.0063
11.7555	1.1599
11.5977	1.2712
11.444	1.3528
11.2944	1.4294
11.1487	1.4707
11.0067	1.5535
10.8682	1.6279
10.7332	1.6929
10.6015	1.7683
10.473	1.8564
10.3476	1.9575
10.2251	2.0801
10.1056	2.2319
9.98873	2.4048
9.87458	2.6484
9.763	2.9685
9.65392	3.449
9.54724	4.1477
9.44291	5.6543
9.34082	9.2177
9.24091	10.822
9.14312	11.2741
9.04739	11.5449
8.95363	11.7146
8.8618	11.5634
8.77183	10.9934
8.68368	9.9043
8.59727	8.3723
8.51257	10.8476
8.42951	10.792
8.34807	10.4919
8.26819	10.3379
8.18981	9.9883
8.11292	8.6921
8.03745	7.4109
7.96337	6.459
7.89064	5.2358
7.81924	4.3061
7.74911	3.8125
7.68023	3.104
7.61256	2.1182
7.54608	1.2139
7.48074	0.3926
7.41653	0.0513
7.35341	0.0122
7.29136	0.0518
7.23034	0.1074
7.17033	0.1641
7.11132	0.2263
7.05327	0.2698
6.99616	0.3318
6.93996	0.3823
6.88467	0.4255
6.83024	0.4182
6.77667	0.4009
6.72393	0.3958
6.67201	0.4263
6.62089	0.437
6.57054	0.4324
6.52095	0.4666
6.4721	0.6265
6.42398	0.7102
6.37657	0.6304
6.32986	0.5627
6.28382	0.5088
6.23845	0.4949
6.19373	0.4902
6.14965	0.5347
6.10619	0.6255
6.06334	0.6963
6.02109	0.6934
5.97942	0.6279
5.93832	0.5916
5.89778	0.6467
5.8578	0.7693
5.81835	0.9065
5.77943	1.0696
5.74103	1.2082
5.70314	1.2539
5.66574	0.9998
5.62883	0.7341
5.5924	0.6863
5.55644	0.6975
5.52093	0.7473
5.48588	0.8545
5.45127	0.9302
5.41709	0.7935
5.38334	0.6797
5.35	0.6519
5.31708	0.6504
5.28456	0.6616
5.25243	0.7004
5.2207	0.8386
5.18934	0.9336
5.15836	0.9021
5.12775	0.8787
5.09749	0.864
5.0676	0.8079
5.03805	0.8003
5.00884	0.8013
4.97998	0.8354
4.95144	1.0303
4.92322	1.2383
4.89533	1.9568
4.86775	2.9451
4.84048	3.6206
4.81351	4.0813
4.78684	4.4507
4.76047	4.7217
4.73439	4.8862
4.70859	4.7807
4.68306	4.2585
4.65782	4.7432
4.63284	5.2922
4.60814	5.6138
4.58369	5.7324
4.5595	5.6362
4.53557	5.1728
4.51188	4.4167
4.48845	3.8296
4.46525	3.6665
4.44229	3.9722
4.41957	4.2187
4.39708	4.5852
4.37481	5.0493
4.35277	5.4712
4.33096	5.6914
4.30935	5.6821
4.28797	5.6157
4.26679	5.7729
4.24583	5.8506
4.22506	5.8262
4.2045	5.8342
4.18414	5.8931
4.16398	6.0246
4.14401	6.1299
4.12423	6.26
4.10464	6.4172
4.08523	6.5649
4.066	6.6682
4.04696	6.6951
4.02809	6.6562
4.0094	6.6448
3.99088	6.6714
3.97253	6.7453
3.95435	6.855
3.93634	6.9531
3.91848	6.9919
3.90079	6.9665
3.88326	6.8891
3.86589	6.8169
3.84867	6.8071
3.8316	6.8337
3.81468	6.8789
3.79791	6.8909
3.78129	6.8716
3.76482	6.8088
3.74848	6.7532
3.73229	6.7568
3.71624	6.8347
3.70032	6.9612
3.68454	7.0881
3.6689	7.1977
3.65338	7.2744
3.638	7.3171
3.62275	7.3352
3.60762	7.344
3.59262	7.3713
3.57775	7.396
3.56299	7.4333
3.54836	7.4807
3.53385	7.5322
3.51945	7.5757
3.50517	7.5947
3.49101	7.6345
3.47696	7.6648
3.46303	7.6907
3.4492	7.6792
3.43549	7.6587
3.42188	7.644
3.40838	7.626
3.39499	7.6382
3.38171	7.635
3.36852	7.6421
3.35544	7.6479
3.34246	7.6614
3.32958	7.6572
3.3168	7.6472
3.30411	7.6304
3.29153	7.612
3.27903	7.6042
3.26664	7.5932
3.25433	7.5798
3.24212	7.5793
3.23	7.5613
3.21797	7.5469
3.20603	7.5376
3.19418	7.5156
3.18241	7.5115
3.17074	7.487
3.15914	7.4648
3.14763	7.4092
3.13621	7.3403
3.12487	7.3056
3.11361	7.3252
3.10243	7.3564
3.09133	7.3647
3.0803	7.3493
3.06936	7.3193
3.0585	7.2627
3.04771	7.1836
3.037	7.1125
3.02636	7.091
3.0158	7.0737
3.00531	7.0867
2.99489	7.1001
2.98454	7.1101
2.97427	7.0332
2.96407	6.8503
2.95393	6.8286
2.94387	6.9355
2.93387	6.9826
2.92394	6.9731
2.91408	6.9638
2.90429	6.989
2.89456	7.0329
2.88489	7.0449
2.87529	6.9472
2.86576	6.9555
2.85628	7.0559
2.84687	7.0722
2.83752	7.0849
2.82823	7.0683
2.81901	7.0796
2.80984	7.0884
2.80073	7.0613
2.79168	7.071
2.78269	7.0442
2.77376	7.0549
2.76488	7.0425
2.75606	6.9971
2.7473	7.0495
2.73859	7
2.72994	7.0327
2.72134	7.0085
2.7128	7.061
2.70431	7.071
2.69587	7.0522
2.68748	7.0635
2.67915	7.03
2.67087	7.0134
2.66264	7.0571
2.65446	7.0466
2.64633	7.0334
2.63825	7.0212
2.63021	6.9551
2.62223	6.99
2.6143	6.9602
2.60641	6.9275
2.59857	6.9206
2.59078	6.9138
2.58304	6.8694
2.57534	6.8672
2.56768	6.845
2.56008	6.8061
2.55251	6.8127
2.54499	6.7912
2.53752	6.7868
2.53009	6.7615
2.5227	6.7522
2.51536	6.7334
2.50806	6.7331
2.5008	6.7021
2.49358	6.6689
2.4864	6.6738
2.47927	6.6477
2.47218	6.6597
2.46512	6.6296
2.45811	6.6191
2.45114	6.6037
2.4442	6.5886
2.43731	6.5889
2.43045	6.5683
2.42363	6.5488
2.41685	6.5627
2.41011	6.5542
2.40341	6.5244
2.39674	6.5498
2.39011	6.5137
2.38352	6.5425
2.37696	6.5195
2.37044	6.4858
2.36395	6.4829
2.35751	6.4768
2.35109	6.4805
2.34471	6.5005
2.33836	6.488
2.33205	6.4433
2.32578	6.4399
2.31953	6.4731
2.31332	6.4546
2.30714	6.4748
2.301	6.4914
2.29489	6.4844
2.28881	6.4878
2.28276	6.4971
2.27675	6.4958
2.27076	6.4956
2.26481	6.4692
2.25889	6.4761
2.253	6.4634
2.24714	6.5034
2.24131	6.4741
2.23551	6.4966
2.22974	6.478
2.224	6.4722
2.21829	6.4961
2.21261	6.5151
2.20696	6.5117
2.20134	6.5161
2.19574	6.5364
2.19018	6.5408
2.18464	6.5493
2.17913	6.5774
2.17365	6.6074
2.16819	6.6108
2.16277	6.6142
2.15737	6.604
2.15199	6.6096
2.14665	6.5979
2.14133	6.5871
2.13603	6.6409
2.13077	6.6496
2.12552	6.6421
2.12031	6.6811
2.11512	6.6645
2.10995	6.7016
2.10481	6.7029
2.0997	6.7309
2.09461	6.7434
2.08954	6.7563
2.0845	6.771
2.07948	6.7812
