Name: Mordenite (Ca,Na2,K2)Al2Si10O24.7H2O
Type: Mineral
Class: Silicates
Subclass: Tectosilicates (Framework Silicates); (ZeoliteGroup)
Particle Size: Solid
Sample No.: morden.1
Owner: JHU
Wavelength Range: IR
Origin: Union Pass, Arizona via W. J. Ehmann #10
Description: The sample consisted of small transparent crystals of
Measurement: Bidirectional reflectance
X Units: Wavelength (micrometers)
Y Units: Reflectance (percent)
wavelength	value
25.0442	4.168
24.3388	4.4563
23.6719	4.6929
23.0407	5.1125
22.4422	5.3428
21.8741	5.6836
21.334	6.1999
20.8199	5.949
20.33	4.4661
19.8627	3.3357
19.4163	3.0176
18.9896	3.0837
18.5812	2.9299
18.19	2.8176
17.815	2.6311
17.4551	2.4329
17.1094	2.196
16.7772	1.9416
16.4576	1.9241
16.15	1.791
15.8537	1.7112
15.568	1.5671
15.2925	1.4998
15.0265	1.5725
14.7697	1.6482
14.5214	1.6655
14.2814	1.6938
14.0492	1.7424
13.8244	1.7373
13.6067	1.7224
13.3957	1.7278
13.1912	1.7778
12.9929	1.821
12.8004	1.8647
12.6135	1.8523
12.432	1.7756
12.2557	1.7471
12.0843	1.8469
11.9176	1.9812
11.7555	2.0854
11.5977	2.1687
11.444	2.2336
11.2944	2.292
11.1487	2.3821
11.0067	2.4883
10.8682	2.5735
10.7332	2.6663
10.6015	2.8125
10.473	3.0015
10.3476	3.2124
10.2251	3.4661
10.1056	3.7815
9.98873	4.1518
9.87458	4.5889
9.763	5.0437
9.65392	5.5434
9.54724	6.0154
9.44291	6.418
9.34082	6.6763
9.24091	6.9702
9.14312	7.1135
9.04739	6.7954
8.95363	6.1692
8.8618	5.5351
8.77183	5.1228
8.68368	4.8996
8.59727	4.7224
8.51257	4.574
8.42951	4.4707
8.34807	4.3301
8.26819	4.2256
8.18981	4.5029
8.11292	5.1933
8.03745	5.7961
7.96337	5.4436
7.89064	3.8552
7.81924	2.0139
7.74911	0.8337
7.68023	0.4377
7.61256	0.3713
7.54608	0.3899
7.48074	0.4214
7.41653	0.4705
7.35341	0.5176
7.29136	0.5679
7.23034	0.606
7.17033	0.6599
7.11132	0.6946
7.05327	0.7312
6.99616	0.7766
6.93996	0.8142
6.88467	0.8513
6.83024	0.8796
6.77667	0.9116
6.72393	0.9446
6.67201	0.978
6.62089	1.0022
6.57054	1.0322
6.52095	1.0527
6.4721	1.0681
6.42398	1.0852
6.37657	1.0762
6.32986	1.0637
6.28382	1.0447
6.23845	1.0164
6.19373	0.9905
6.14965	0.9468
6.10619	0.8953
6.06334	0.8608
6.02109	0.8472
5.97942	0.8748
5.93832	0.9268
5.89778	1.0154
5.8578	1.1094
5.81835	1.1843
5.77943	1.2395
5.74103	1.2844
5.70314	1.3179
5.66574	1.3291
5.62883	1.3406
5.5924	1.3503
5.55644	1.3494
5.52093	1.3647
5.48588	1.3594
5.45127	1.3735
5.41709	1.3979
5.38334	1.4228
5.35	1.4558
5.31708	1.4927
5.28456	1.5254
5.25243	1.5535
5.2207	1.5725
5.18934	1.5901
5.15836	1.6008
5.12775	1.6182
5.09749	1.6487
5.0676	1.6875
5.03805	1.7248
5.00884	1.7749
4.97998	1.8352
4.95144	1.8862
4.92322	1.9419
4.89533	1.9954
4.86775	2.0427
4.84048	2.0762
4.81351	2.1106
4.78684	2.1279
4.76047	2.1462
4.73439	2.1555
4.70859	2.1728
4.68306	2.1802
4.65782	2.1921
4.63284	2.2056
4.60814	2.2173
4.58369	2.2351
4.5595	2.2595
4.53557	2.281
4.51188	2.3091
4.48845	2.3423
4.46525	2.3826
4.44229	2.4341
4.41957	2.4851
4.39708	2.5498
4.37481	2.6152
4.35277	2.6902
4.33096	2.7759
4.30935	2.8518
4.28797	2.9409
4.26679	3.0149
4.24583	3.1189
4.22506	3.219
4.2045	3.3196
4.18414	3.4072
4.16398	3.5049
4.14401	3.5981
4.12423	3.6946
4.10464	3.7788
4.08523	3.8806
4.066	3.96
4.04696	4.041
4.02809	4.114
4.0094	4.1514
3.99088	4.1719
3.97253	4.2063
3.95435	4.2615
3.93634	4.3213
3.91848	4.3476
3.90079	4.3613
3.88326	4.3735
3.86589	4.373
3.84867	4.3584
3.8316	4.3494
3.81468	4.3203
3.79791	4.2988
3.78129	4.2583
3.76482	4.2121
3.74848	4.1719
3.73229	4.1211
3.71624	4.0561
3.70032	3.9934
3.68454	3.9265
3.6689	3.8511
3.65338	3.7688
3.638	3.6982
3.62275	3.6135
3.60762	3.5173
3.59262	3.4243
3.57775	3.3318
3.56299	3.2427
3.54836	3.145
3.53385	3.0359
3.51945	2.9309
3.50517	2.8198
3.49101	2.7297
3.47696	2.6318
3.46303	2.5508
3.4492	2.4485
3.43549	2.3542
3.42188	2.2639
3.40838	2.1716
3.39499	2.0923
3.38171	2.012
3.36852	1.9458
3.35544	1.8791
3.34246	1.814
3.32958	1.7436
3.3168	1.6926
3.30411	1.6416
3.29153	1.5928
3.27903	1.542
3.26664	1.4949
3.25433	1.4658
3.24212	1.427
3.23	1.3926
3.21797	1.3628
3.20603	1.3296
3.19418	1.3081
3.18241	1.2795
3.17074	1.2585
3.15914	1.2415
3.14763	1.2165
3.13621	1.1982
3.12487	1.1802
3.11361	1.1672
3.10243	1.1489
3.09133	1.1428
3.0803	1.1243
3.06936	1.1199
3.0585	1.113
3.04771	1.105
3.037	1.0999
3.02636	1.0984
3.0158	1.0847
3.00531	1.0747
2.99489	1.083
2.98454	1.0586
2.97427	1.0557
2.96407	1.05
2.95393	1.0383
2.94387	1.0439
2.93387	1.0266
2.92394	1.0107
2.91408	1.0193
2.90429	1.0034
2.89456	1.0061
2.88489	0.9998
2.87529	0.9819
2.86576	0.9963
2.85628	0.99
2.84687	0.9976
2.83752	0.9915
2.82823	0.9761
2.81901	0.9641
2.80984	0.97
2.80073	0.9727
2.79168	0.9521
2.78269	0.927
2.77376	0.9187
2.76488	0.9216
2.75606	0.9033
2.7473	0.9067
2.73859	0.9009
2.72994	0.9309
2.72134	0.9907
2.7128	1.0986
2.70431	1.2993
2.69587	1.4902
2.68748	1.6875
2.67915	1.8545
2.67087	2.0017
2.66264	2.1748
2.65446	2.3098
2.64633	2.439
2.63825	2.5325
2.63021	2.5969
2.62223	2.6509
2.6143	2.6819
2.60641	2.707
2.59857	2.7253
2.59078	2.7646
2.58304	2.769
2.57534	2.7756
2.56768	2.7976
2.56008	2.823
2.55251	2.8562
2.54499	2.8777
2.53752	2.9045
2.53009	2.947
2.5227	2.9956
2.51536	3.0305
2.50806	3.0884
2.5008	3.1467
2.49358	3.2114
2.4864	3.2795
2.47927	3.3481
2.47218	3.3938
2.46512	3.4751
2.45811	3.5464
2.45114	3.613
2.4442	3.6985
2.43731	3.793
2.43045	3.9233
2.42363	4.0454
2.41685	4.1418
2.41011	4.2876
2.40341	4.4177
2.39674	4.551
2.39011	4.6597
2.38352	4.7969
2.37696	4.9194
2.37044	5.0539
2.36395	5.1731
2.35751	5.3057
2.35109	5.4292
2.34471	5.5288
2.33836	5.6411
2.33205	5.7502
2.32578	5.8616
2.31953	5.9841
2.31332	6.0408
2.30714	6.1394
2.301	6.1702
2.29489	6.2363
2.28881	6.2922
2.28276	6.3564
2.27675	6.3493
2.27076	6.375
2.26481	6.376
2.25889	6.3662
2.253	6.3738
2.24714	6.3518
2.24131	6.353
2.23551	6.3694
2.22974	6.3567
2.224	6.3823
2.21829	6.4031
2.21261	6.4409
2.20696	6.4534
2.20134	6.5195
2.19574	6.5735
2.19018	6.5886
2.18464	6.6899
2.17913	6.7119
2.17365	6.793
2.16819	6.8108
2.16277	6.8611
2.15737	6.8782
2.15199	6.8987
2.14665	6.8928
2.14133	6.8745
2.13603	6.8918
2.13077	6.8935
2.12552	6.8774
2.12031	6.8232
2.11512	6.8498
2.10995	6.8476
2.10481	6.7727
2.0997	6.7688
2.09461	6.7763
2.08954	6.7309
2.0845	6.7253
2.07948	6.718
