Name: Brown to dark brown clay
Type: Soils
Class: Vertisol
Subclass: Chromoxerert
Particle Size: see additional information
Sample No.: 88P475
Owner: JHU
Origin: Settat, Morocco, 7 km N of Settat on Casablanca highway, 30 m east of
Description: Parent material: unconsolidated sediments from mixed-
Measurement: Directional (10 degree) hemispherical reflectance
X Units: Wavelength (micrometers)
Y Units: Reflectance (percent)
wavelength	value
14.983	1.849
14.645	1.897
14.321	1.67
14.011	1.688
13.715	1.915
13.43	1.935
13.158	2.111
12.896	2.487
12.644	2.224
12.402	1.834
12.169	1.688
11.945	2.023
11.729	2.213
11.52	2.39
11.319	2.396
11.125	2.518
10.937	2.62
10.755	2.564
10.58	2.73
10.41	3.008
10.245	3.452
10.086	4.105
9.931	4.983
9.781	5.54
9.636	6.398
9.495	6.862
9.358	7.312
9.225	6.884
9.095	6.532
8.969	6.282
8.847	6.546
8.727	6.254
8.612	5.272
8.499	6.44
8.389	6.599
8.281	7.35
8.177	7.712
8.075	5.658
7.976	4.148
7.879	3.075
7.784	2.709
7.692	2.567
7.601	2.343
7.513	2.266
7.427	2.124
7.343	2.032
7.261	1.95
7.18	1.778
7.102	1.763
7.025	1.751
6.949	1.728
6.875	1.766
6.803	1.781
6.733	1.877
6.663	2.032
6.596	2.073
6.529	2.024
6.464	2.108
6.4	1.888
6.338	1.64
6.276	1.389
6.216	1.262
6.157	1.157
6.099	1.148
6.042	1.147
5.986	1.249
5.931	1.378
5.878	1.807
5.825	2.38
5.773	3.086
5.722	3.71
5.672	3.947
5.623	3.603
5.574	3.354
5.527	3.698
5.48	4.155
5.434	4.433
5.389	3.753
5.345	3.436
5.301	3.672
5.258	4.181
5.215	5.139
5.174	5.402
5.133	5.36
5.093	5.367
5.053	5.177
5.014	5.237
4.975	5.659
4.937	6.492
4.9	7.703
4.863	9.168
4.827	9.837
4.791	10.204
4.756	10.451
4.721	10.513
4.687	10.281
4.654	10.609
4.62	11.093
4.588	11.323
4.556	11.388
4.524	11.167
4.492	10.734
4.461	10.767
4.431	11.255
4.401	11.73
4.371	12.369
4.342	12.878
4.313	13.188
4.284	13.353
4.256	13.737
4.229	14.152
4.201	14.475
4.174	14.933
4.147	15.247
4.121	15.661
4.095	15.996
4.069	16.283
4.044	16.317
4.019	16.106
3.994	15.397
3.97	14.778
3.945	15.346
3.921	15.662
3.898	15.833
3.875	15.73
3.852	15.629
3.829	15.5
3.806	15.177
3.784	14.955
3.762	14.65
3.74	14.253
3.719	13.815
3.698	13.41
3.677	12.939
3.656	12.465
3.636	12.04
3.615	11.47
3.595	11.021
3.575	10.445
3.556	9.954
3.536	9.339
3.517	8.554
3.498	7.841
3.479	7.445
3.461	7.01
3.442	6.597
3.424	6.079
3.406	5.832
3.388	5.624
3.371	5.388
3.353	5.121
3.336	4.953
3.319	4.636
3.302	4.339
3.285	4.158
3.269	3.895
3.252	3.643
3.236	3.462
3.22	3.252
3.204	3.068
3.188	2.87
3.173	2.728
3.157	2.617
3.142	2.45
3.127	2.322
3.112	2.277
3.097	2.169
3.082	2.134
3.067	2.049
3.053	2.052
3.039	2.029
3.025	1.965
3.011	1.912
2.997	1.853
2.983	1.848
2.969	1.794
2.956	1.758
2.942	1.79
2.929	1.73
2.916	1.755
2.903	1.733
2.89	1.727
2.877	1.811
2.864	1.781
2.852	1.839
2.839	1.847
2.827	1.91
2.814	1.921
2.802	1.84
2.79	1.856
2.778	1.797
2.766	1.692
2.755	1.676
2.743	1.8
2.731	2.157
2.72	3.054
2.708	3.647
2.697	5.542
2.686	10.329
2.675	13.49
2.664	15.252
2.653	16.608
2.642	17.614
2.632	18.289
2.621	18.904
2.61	19.319
2.6	19.685
2.59	19.946
2.579	20.179
2.569	20.356
2.559	20.529
2.549	20.646
2.539	20.76
2.529	20.794
2.519	21.08
2.509	21.215
2.5	21.545
2.49	21.914
2.481	22.271
2.471	22.654
2.462	23.02
2.452	23.499
2.443	23.853
2.434	24.367
2.425	25.041
2.416	25.706
2.407	26.216
2.398	26.76
2.389	27.119
2.38	27.41
2.372	27.894
2.363	28.39
2.354	28.724
2.346	29.159
2.337	29.595
2.329	30.322
2.321	30.85
2.312	31.304
2.304	31.633
2.296	32.048
2.288	32.227
2.28	32.438
2.272	32.629
2.264	32.592
2.256	32.427
2.248	32.092
2.24	31.808
2.233	31.731
2.225	31.313
2.217	30.923
2.21	29.96
2.202	30.404
2.195	30.907
2.187	31.575
2.18	32.24
2.173	32.798
2.166	33.36
2.158	33.77
2.151	34.078
2.144	34.202
2.137	34.388
2.13	34.293
2.123	34.242
2.116	34.153
2.109	34.059
2.102	34.012
2.095	33.877
2.089	33.745
2.082	33.787
2.06	33.079
2.028	31.539
1.996	28.712
1.964	25.41
1.932	22.277
1.9	19.685
1.868	30.745
1.836	33.599
1.804	34.17
1.772	33.601
1.74	33.429
1.708	33.487
1.676	33.434
1.644	32.775
1.612	32.189
1.58	31.395
1.548	30.876
1.516	30.106
1.484	29.36
1.452	27.755
1.42	25.981
1.388	26.513
1.356	28.257
1.324	28.291
1.292	27.302
1.26	26.761
1.228	26.466
1.196	25.243
1.164	23.971
1.132	23.352
1.1	20.688
1.068	20.468
1.036	18.817
1.004	17.045
0.972	15.502
0.94	13.743
0.908	11.98
0.876	10.464
0.844	8.929
0.812	7.666
0.795	7.059
0.787	6.313
0.779	6.461
0.771	5.768
0.763	5.74
0.755	5.238
0.747	4.947
0.739	4.578
0.731	4.249
0.723	3.892
0.715	3.789
0.707	3.341
0.699	3.288
0.691	2.538
0.683	2.024
0.675	2.043
0.667	1.687
0.659	1.238
0.651	1.189
0.643	0.7392
0.635	0.4195
0.627	0
0.619	0
0.611	0
0.603	0
0.595	0
0.587	0
0.579	0
0.571	0
0.563	0
0.555	0
0.547	0
0.539	0
0.531	0
0.523	0
0.515	0
0.507	0
0.499	0
0.491	0
0.483	0
0.475	0
0.467	0
0.459	0
0.451	0
0.443	0
0.435	0
0.427	0
0.419	0
0.411	0
0.403	0
