Name: Petersburg
Type: Stony Meteorites
Class: Achondrite
Subclass: Howardite
Particle Size: 0-75 micrometers
Sample No.: Petersburg
Owner: JHU
Origin: Seen to fall in 1855.  Smithsonian sample without a USNM catalog
Description: None.
Measurement: Bidirectional reflectance
X Units: Wavelength (micrometers)
Y Units: Reflectance (percent)
wavelength	value
25.044	0.9238
24.339	0.771
23.672	0.8813
23.041	0.8745
22.442	0.9663
21.874	0.9844
21.334	1.0022
20.82	1.1267
20.33	1.2371
19.863	1.3135
19.416	1.2353
18.99	1.0574
18.581	1.0171
18.19	0.9336
17.815	0.999
17.455	0.9944
17.109	0.9807
16.777	0.939
16.458	0.8154
16.15	0.6775
15.854	0.6257
15.568	0.5977
15.292	0.5352
15.027	0.5015
14.77	0.521
14.521	0.6609
14.281	0.8237
14.049	0.9648
13.824	0.8118
13.607	0.7837
13.396	0.9678
13.191	1.0928
12.993	1.2595
12.8	1.3679
12.614	1.5571
12.432	1.6975
12.256	1.6562
12.084	1.4614
11.918	1.2683
11.755	1.1604
11.598	1.0898
11.444	1.0894
11.294	1.0977
11.149	0.9983
11.007	0.812
10.868	0.8423
10.733	0.9216
10.602	0.918
10.473	0.9172
10.348	0.8979
10.225	0.8633
10.106	0.8687
9.9887	0.8374
9.8746	0.8779
9.763	0.9641
9.6539	0.9946
9.5472	1.0095
9.4429	0.9685
9.3408	0.967
9.2409	1.0005
9.1431	1.0466
9.0474	1.0356
8.9536	0.9509
8.8618	0.8394
8.7718	0.7261
8.6837	0.6257
8.5973	0.5906
8.5126	0.6008
8.4295	0.6201
8.3481	0.6785
8.2682	0.7605
8.1898	0.8801
8.1129	1.0618
8.0374	1.2859
7.9634	1.55
7.8906	1.8418
7.8192	2.1274
7.7491	2.3992
7.6802	2.6333
7.6126	2.8181
7.5461	3.0095
7.4807	3.2075
7.4165	3.3943
7.3534	3.582
7.2914	3.7483
7.2303	3.8906
7.1703	4.012
7.1113	4.1111
7.0533	4.2016
6.9962	4.2949
6.94	4.353
6.8847	4.3979
6.8302	4.5007
6.7767	4.6081
6.7239	4.6218
6.672	4.6033
6.6209	4.5957
6.5705	4.5708
6.5209	4.616
6.4721	4.6423
6.424	4.6118
6.3766	4.553
6.3299	4.365
6.2838	4.259
6.2385	4.1943
6.1937	4.2268
6.1496	4.3179
6.1062	4.457
6.0633	4.5471
6.0211	4.6099
5.9794	4.6658
5.9383	4.8625
5.8978	5.1689
5.8578	5.4023
5.8184	5.5005
5.7794	5.5937
5.741	5.7119
5.7031	5.8083
5.6657	5.8801
5.6288	5.956
5.5924	6.1086
5.5564	6.2759
5.5209	6.3542
5.4859	6.322
5.4513	6.2483
5.4171	6.1741
5.3833	6.155
5.35	6.0796
5.3171	5.9556
5.2846	5.8384
5.2524	5.8042
5.2207	5.8098
5.1893	5.8603
5.1584	5.9448
5.1277	6.0666
5.0975	6.1885
5.0676	6.2998
5.038	6.4028
5.0088	6.4973
4.98	6.6101
4.9514	6.7409
4.9232	6.8618
4.8953	6.977
4.8678	7.091
4.8405	7.2265
4.8135	7.3642
4.7868	7.4736
4.7605	7.5754
4.7344	7.7126
4.7086	7.864
4.6831	8.0115
4.6578	8.1264
4.6328	8.2314
4.6081	8.323
4.5837	8.3918
4.5595	8.4516
4.5356	8.4946
4.5119	8.5244
4.4884	8.5469
4.4652	8.5578
4.4423	8.5698
4.4196	8.5776
4.3971	8.5903
4.3748	8.602
4.3528	8.6157
4.331	8.6233
4.3094	8.6394
4.288	8.6601
4.2668	8.6753
4.2458	8.7063
4.2251	8.718
4.2045	8.7424
4.1841	8.7553
4.164	8.7661
4.144	8.7781
4.1242	8.7856
4.1046	8.7969
4.0852	8.8083
4.066	8.8198
4.047	8.8183
4.0281	8.8274
4.0094	8.8196
3.9909	8.8164
3.9725	8.8047
3.9544	8.8059
3.9363	8.8113
3.9185	8.8103
3.9008	8.8235
3.8833	8.8196
3.8659	8.8237
3.8487	8.8249
3.8316	8.8227
3.8147	8.8139
3.7979	8.8103
3.7813	8.8142
3.7648	8.8061
3.7485	8.8098
3.7323	8.8037
3.7162	8.7986
3.7003	8.7803
3.6845	8.7734
3.6689	8.7622
3.6534	8.7558
3.638	8.7495
3.6227	8.7431
3.6076	8.7221
3.5926	8.6997
3.5777	8.6784
3.563	8.6445
3.5484	8.602
3.5338	8.5405
3.5195	8.4065
3.5052	8.2077
3.491	8.2231
3.477	8.2475
3.463	8.2414
3.4492	8.1709
3.4355	8.0742
3.4219	7.8913
3.4084	7.8943
3.395	8.0395
3.3817	8.0517
3.3685	8.1072
3.3554	8.2077
3.3425	8.2458
3.3296	8.2322
3.3168	8.2182
3.3041	8.1421
3.2915	8.1811
3.279	8.167
3.2666	8.1133
3.2543	8.1184
3.2421	8.0747
3.23	8.0937
3.218	8.0666
3.206	8.0598
3.1942	8.0224
3.1824	7.989
3.1707	7.9548
3.1591	7.9216
3.1476	7.8894
3.1362	7.8606
3.1249	7.8357
3.1136	7.8044
3.1024	7.7773
3.0913	7.7551
3.0803	7.7368
3.0694	7.7192
3.0585	7.7048
3.0477	7.686
3.037	7.6721
3.0264	7.6504
3.0158	7.6335
3.0053	7.6189
2.9949	7.6015
2.9845	7.5964
2.9743	7.5769
2.9641	7.584
2.9539	7.5705
2.9439	7.5608
2.9339	7.5847
2.9239	7.5869
2.9141	7.6069
2.9043	7.6294
2.8946	7.6538
2.8849	7.6858
2.8753	7.719
2.8658	7.7558
2.8563	7.8059
2.8469	7.842
2.8375	7.9096
2.8282	7.9724
2.819	8.0144
2.8098	8.0957
2.8007	8.1728
2.7917	8.2698
2.7827	8.3735
2.7738	8.4595
2.7649	8.5744
2.7561	8.6689
2.7473	8.7873
2.7386	8.8498
2.7299	8.9416
2.7213	8.9768
2.7128	9.039
2.7043	9.102
2.6959	9.1091
2.6875	9.1389
2.6791	9.1262
2.6709	9.1135
2.6626	9.1235
2.6545	9.1262
2.6463	9.1201
2.6382	9.1008
2.6302	9.0603
2.6222	9.0442
2.6143	9.0256
2.6064	8.9929
2.5986	8.9814
2.5908	8.9431
2.583	8.9206
2.5753	8.8952
2.5677	8.8684
2.5601	8.8379
2.5525	8.802
2.545	8.7903
2.5375	8.7453
2.5301	8.7151
2.5227	8.6899
2.5154	8.6479
2.5081	8.6186
2.5008	8.5783
2.4936	8.5505
2.4864	8.497
2.4793	8.4524
2.4722	8.4219
2.4651	8.3745
2.4581	8.3496
2.4511	8.2971
2.4442	8.2715
2.4373	8.228
2.4305	8.1772
2.4236	8.1384
2.4169	8.0989
2.4101	8.053
2.4034	8.0207
2.3967	7.9846
2.3901	7.9497
2.3835	7.9158
2.377	7.8613
2.3704	7.8386
2.364	7.7881
2.3575	7.751
2.3511	7.7192
2.3447	7.665
2.3384	7.6189
2.3321	7.5862
2.3258	7.5554
2.3195	7.5034
2.3133	7.4429
2.3071	7.4048
2.301	7.363
2.2949	7.3288
2.2888	7.291
2.2828	7.2571
2.2767	7.2585
2.2708	7.1677
2.2648	7.1526
2.2589	7.1313
2.253	7.0781
2.2471	7.0534
2.2413	7.0168
2.2355	6.9753
2.2297	6.9341
2.224	6.8982
2.2183	6.8742
2.2126	6.843
2.207	6.7754
2.2013	6.7639
2.1957	6.7456
2.1902	6.7251
2.1846	6.6946
2.1791	6.6501
2.1736	6.5871
2.1682	6.5867
2.1628	6.5569
2.1574	6.5371
2.152	6.5056
2.1466	6.4934
2.1413	6.4526
2.136	6.4311
2.1308	6.4094
2.1255	6.3655
2.1203	6.3503
2.1151	6.3393
2.11	6.2959
2.1048	6.2922
2.0997	6.3017
2.0946	6.2617
2.0895	6.2536
2.0845	6.2182
2.0795	6.1926
