Name: Bustamite (Mn,Ca)3Si3O9
Type: Mineral
Class: Silicates
Subclass: Inosilicates (Chain Silicates) (Pyroxenoid Group)
Particle Size: Fine  (less than 2 Micrometers)
Sample No.: bustamite.1
Owner: JHU
Wavelength Range: IR
Origin: Smithsonian NMNH R3099 Sample from Franklin, New Jersey.
Description: The sample was a prismatic piece about 3 cm in length
Measurement: Transmission
X Units: Wavelength (micrometers)
Y Units: Transmittance (percent)
wavelength	value
25.044	75.9764
24.339	71.1912
23.672	71.242
23.041	54.1112
22.442	46.2577
21.874	40.1894
21.334	40.244
20.82	43.3983
20.33	56.4334
19.863	59.4061
19.416	55.8251
18.99	61.578
18.581	72.6297
18.19	73.2166
17.815	63.119
17.455	73.533
17.109	81.6775
16.777	84.5603
16.458	85.2439
16.15	85.3445
15.854	84.9412
15.568	80.7244
15.292	71.4608
15.027	82.0506
14.77	84.0652
14.521	78.4285
14.281	82.4353
14.049	87.1404
13.824	88.0506
13.607	88.8845
13.396	89.4744
13.191	89.7678
12.993	89.9802
12.8	89.5252
12.614	89.1004
12.432	87.721
12.256	84.4495
12.084	82.1057
11.918	78.4236
11.755	77.0916
11.598	73.9417
11.444	65.1644
11.294	51.3749
11.149	38.0121
11.007	27.3202
10.868	34.5839
10.733	35.1151
10.602	26.8578
10.473	28.9281
10.348	36.5614
10.225	52.0277
10.106	54.6473
9.989	47.8724
9.875	39.3231
9.763	31.12
9.654	30.9203
9.547	32.7641
9.443	36.9467
9.341	35.7411
9.241	29.5707
9.143	30.8432
9.047	42.5336
8.954	57.0135
8.862	68.0833
8.772	75.7977
8.684	80.618
8.597	83.9095
8.513	86.2117
8.43	88.1541
8.348	89.8723
8.268	91.1921
8.19	92.1604
8.113	92.9675
8.037	93.5283
7.963	94.155
7.891	94.5732
7.819	94.9592
7.749	95.156
7.68	95.3506
7.613	95.6707
7.546	95.8848
7.481	96.0139
7.417	96.0749
7.353	96.0466
7.291	96.22
7.23	96.1982
7.17	96.249
7.111	95.8633
7.053	95.1777
6.996	95.0303
6.94	95.3311
6.885	95.3416
6.83	95.4531
6.777	95.6736
6.724	95.8899
6.672	96.2344
6.621	96.5154
6.571	96.8518
6.521	96.8115
6.472	96.8621
6.424	96.9277
6.377	96.5889
6.33	96.2888
6.284	96.0889
6.238	95.8564
6.194	95.3582
6.15	94.552
6.106	94.4287
6.063	94.949
6.021	96.344
5.979	97.75
5.938	97.8203
5.898	97.7461
5.858	97.8113
5.818	98.1103
5.779	98.0762
5.741	98.1601
5.703	98.1326
5.666	98.1435
5.629	98.1521
5.592	98.166
5.556	98.248
5.521	98.2744
5.486	98.2949
5.451	98.3262
5.417	98.4451
5.383	98.333
5.35	98.3904
5.317	98.3362
5.285	98.293
5.252	98.2207
5.221	98.2529
5.189	98.363
5.158	98.4094
5.128	98.4568
5.097	98.4902
5.068	98.4919
5.038	98.5373
5.009	98.5447
4.98	98.5735
4.951	98.5691
4.923	98.5998
4.895	98.6404
4.868	98.633
4.84	98.6545
4.814	98.717
4.787	98.7742
4.76	98.781
4.734	98.8142
4.709	98.7873
4.683	98.8669
4.658	98.8992
4.633	98.9382
4.608	99.0754
4.584	98.9704
4.56	98.9612
4.536	98.9441
4.512	98.9177
4.488	98.927
4.465	98.8987
4.442	98.8772
4.42	98.8845
4.397	98.8611
4.375	98.9358
4.353	98.8581
4.331	98.8464
4.309	98.8352
4.288	98.9221
4.267	98.8894
4.246	98.9128
4.225	98.9285
4.205	98.8445
4.184	98.904
4.164	98.9138
4.144	98.8533
4.124	98.9099
4.105	98.9455
4.085	98.9031
4.066	98.9021
4.047	98.8767
4.028	98.9182
4.009	98.906
3.991	98.8049
3.973	98.7937
3.954	98.8259
3.936	98.8518
3.918	98.8533
3.901	98.8103
3.883	98.7971
3.866	98.6765
3.849	98.7268
3.832	98.7205
3.815	98.7341
3.798	98.6404
3.781	98.6819
3.765	98.614
3.748	98.5886
3.732	98.531
3.716	98.5159
3.7	98.4065
3.685	98.3874
3.669	98.4001
3.653	98.3669
3.638	98.3928
3.623	98.2268
3.608	98.1799
3.593	98.2385
3.578	98.1643
3.563	98.0974
3.548	97.9617
3.534	97.9431
3.519	97.719
3.505	97.4539
3.491	97.5017
3.477	97.4924
3.463	97.4612
3.449	97.363
3.435	97.0466
3.422	96.6409
3.408	96.7405
3.395	97.0076
3.382	97.0139
3.369	97.2986
3.355	97.3455
3.342	97.3162
3.33	97.262
3.317	97.1838
3.304	97.2029
3.292	97.1208
3.279	97.0056
3.267	96.9724
3.254	96.8518
3.242	96.9314
3.23	96.7585
3.218	96.7615
3.206	96.6697
3.194	96.532
3.182	96.3874
3.171	96.1716
3.159	96.0291
3.148	95.8611
3.136	95.5662
3.125	95.4099
3.114	95.1218
3.102	94.6189
3.091	94.2283
3.08	93.9861
3.069	93.6921
3.058	93.3523
3.048	93.1931
3.037	92.8679
3.026	92.5095
3.016	91.9431
3.005	91.3601
2.995	90.7429
2.985	89.9744
2.974	88.9295
2.964	88.1326
2.954	87.2791
2.944	86.5642
2.934	86.0779
2.924	85.8084
2.914	85.7166
2.904	85.781
2.895	85.99
2.885	86.3914
2.875	86.5398
2.866	86.9343
2.856	87.5271
2.847	88.0779
2.838	88.7517
2.828	89.4138
2.819	90.408
2.81	91.1248
2.801	92.0662
2.792	92.9187
2.783	93.9548
2.774	95.1052
2.765	96.0154
2.756	97.1482
2.747	97.9138
2.739	98.5349
2.73	98.864
2.721	98.9529
2.713	99.1677
2.704	99.3904
2.696	99.446
2.687	99.699
2.679	99.6374
2.671	99.8718
2.663	99.7146
2.654	99.5281
2.646	99.6638
2.638	99.6326
2.63	99.739
2.622	99.6013
2.614	99.7458
2.606	99.7654
2.599	99.6853
2.591	99.6658
2.583	99.7322
2.575	99.5329
2.568	99.7322
2.56	99.7302
2.553	99.5408
2.545	99.6306
2.538	99.6892
2.53	99.6658
2.523	99.4177
2.515	99.4568
2.508	99.7087
2.501	99.6716
2.494	99.5466
2.486	99.488
2.479	99.6208
2.472	99.572
2.465	99.656
2.458	99.6267
2.451	99.7673
2.444	99.3923
2.437	99.7224
2.43	99.6013
2.424	99.4333
2.417	99.8279
2.41	99.8122
2.403	99.6326
2.397	99.5251
2.39	99.3826
2.384	99.6111
2.377	99.6443
2.37	99.7439
2.364	99.6345
2.358	99.6814
2.351	99.824
2.345	99.8044
2.338	99.4783
2.332	99.6443
2.326	99.4841
2.32	99.9372
2.313	99.8533
2.307	99.6814
2.301	99.6287
2.295	99.8454
2.289	99.7419
2.283	99.7966
2.277	99.7283
2.271	99.5779
2.265	100.047
2.259	99.7732
2.253	99.7341
2.247	100.086
2.241	99.7497
2.236	99.9333
2.23	100.277
2.224	99.7927
2.218	99.8982
2.213	100.031
2.207	100.07
2.201	99.8357
2.196	99.9685
2.19	100.019
2.185	100.113
2.179	99.906
2.174	100.344
2.168	100.445
2.163	100.191
2.157	100.5
2.152	100.289
2.147	100.164
2.141	100.004
2.136	100.164
2.131	100.515
2.126	100.441
2.12	100.722
2.115	100.394
2.11	100.289
2.105	100.476
2.1	100.281
2.095	100.773
2.09	100.367
2.085	100.781
2.079	100.398
