Name: Topaz Al2SiO4(F,OH)2
Type: Mineral
Class: Silicates
Subclass: Nesosilicates (Isolated tetrahedra)
Particle Size: Coarse  (75 - 250  Micrometers)
Sample No.: topaz.2
Owner: JHU
Wavelength Range: IR
Origin: Ouro Preto, Brazil via Don Hoover, USGS
Description: The sample consisted of several orange-colored, rounded
Measurement: Bidirectional reflectance
X Units: Wavelength (micrometers)
Y Units: Reflectance (percent)
wavelength	value
25.0442	3.3257
24.3388	2.9624
23.6719	3.2063
23.0407	4.0239
22.4422	5.5093
21.8741	6.9284
21.334	4.8852
20.8199	5.3491
20.33	4.4819
19.8627	4.2724
19.4163	3.4717
18.9896	3.0002
18.5812	3.3379
18.19	4.0603
17.815	2.4792
17.4551	1.6741
17.1094	1.9895
16.7772	2.8066
16.4576	4.2549
16.15	5.5305
15.8537	5.8974
15.568	5.7641
15.2925	5.1406
15.0265	3.8928
14.7697	2.3318
14.5214	1.2651
14.2814	1.052
14.0492	0.4709
13.8244	0.7217
13.6067	0.9499
13.3957	1.156
13.1912	1.2717
12.9929	1.3337
12.8004	1.448
12.6135	1.7231
12.432	2.0068
12.2557	2.3589
12.0843	2.9399
11.9176	3.8779
11.7555	4.9011
11.5977	5.8242
11.444	6.6982
11.2944	6.9573
11.1487	7.0508
11.0067	6.967
10.8682	6.9346
10.7332	7.698
10.6015	8.0754
10.473	8.022
10.3476	7.1848
10.2251	5.521
10.1056	5.9748
9.98873	6.1965
9.87458	5.5925
9.763	5.1753
9.65392	5.0019
9.54724	4.5547
9.44291	3.54
9.34082	2.2908
9.24091	1.0552
9.14312	0.2622
9.04739	0.0977
8.95363	0.2153
8.8618	0.3335
8.77183	0.5537
8.68368	1.0955
8.59727	1.6379
8.51257	2.0669
8.42951	1.3911
8.34807	0.4041
8.26819	0.2195
8.18981	0.1843
8.11292	0.2437
8.03745	0.3225
7.96337	0.4214
7.89064	0.5193
7.81924	0.6116
7.74911	0.698
7.68023	0.7798
7.61256	0.8779
7.54608	0.9485
7.48074	1.0269
7.41653	1.1238
7.35341	1.2192
7.29136	1.3213
7.23034	1.425
7.17033	1.5195
7.11132	1.5994
7.05327	1.6868
6.99616	1.8037
6.93996	1.9189
6.88467	1.9829
6.83024	2.0359
6.77667	2.0881
6.72393	2.1682
6.67201	2.2839
6.62089	2.4004
6.57054	2.4741
6.52095	2.5798
6.4721	2.7097
6.42398	2.8506
6.37657	2.9739
6.32986	3.0591
6.28382	3.1257
6.23845	3.1821
6.19373	3.2285
6.14965	3.3152
6.10619	3.4287
6.06334	3.531
6.02109	3.4455
5.97942	3.1316
5.93832	2.9087
5.89778	2.8752
5.8578	2.8628
5.81835	2.7903
5.77943	2.6894
5.74103	2.4792
5.70314	2.1572
5.66574	1.8257
5.62883	1.5806
5.5924	1.4429
5.55644	1.3828
5.52093	1.385
5.48588	1.4216
5.45127	1.4563
5.41709	1.5007
5.38334	1.6094
5.35	1.7593
5.31708	1.979
5.28456	2.29
5.25243	2.7361
5.2207	3.209
5.18934	3.6316
5.15836	4.0112
5.12775	4.3638
5.09749	4.6518
5.0676	4.8684
5.03805	4.9524
5.00884	4.9678
4.97998	5.1767
4.95144	5.605
4.92322	6.061
4.89533	6.4751
4.86775	6.8442
4.84048	7.1111
4.81351	7.2844
4.78684	7.3618
4.76047	7.3745
4.73439	7.3794
4.70859	7.3601
4.68306	7.2785
4.65782	7.1706
4.63284	7.1743
4.60814	7.2583
4.58369	7.3674
4.5595	7.5608
4.53557	7.792
4.51188	7.946
4.48845	7.9814
4.46525	7.9389
4.44229	7.803
4.41957	7.5237
4.39708	6.8972
4.37481	5.5473
4.35277	3.9397
4.33096	3.0493
4.30935	2.9875
4.28797	3.7532
4.26679	5.0217
4.24583	6.3948
4.22506	7.2065
4.2045	7.5971
4.18414	7.7566
4.16398	7.8537
4.14401	7.9978
4.12423	8.1467
4.10464	8.2619
4.08523	8.2712
4.066	8.1155
4.04696	7.8894
4.02809	7.8186
4.0094	8.0044
3.99088	8.2492
3.97253	8.353
3.95435	8.394
3.93634	8.4219
3.91848	8.4072
3.90079	8.3735
3.88326	8.3139
3.86589	8.2981
3.84867	8.2988
3.8316	8.2856
3.81468	8.2991
3.79791	8.3484
3.78129	8.3838
3.76482	8.4345
3.74848	8.4704
3.73229	8.2358
3.71624	8.1328
3.70032	8.501
3.68454	8.5261
3.6689	8.5422
3.65338	8.5566
3.638	8.5742
3.62275	8.5884
3.60762	8.6062
3.59262	8.6096
3.57775	8.623
3.56299	8.6526
3.54836	8.6719
3.53385	8.6977
3.51945	8.7031
3.50517	8.6794
3.49101	8.6855
3.47696	8.6811
3.46303	8.6987
3.4492	8.6936
3.43549	8.677
3.42188	8.6155
3.40838	8.5727
3.39499	8.5381
3.38171	8.4995
3.36852	8.4665
3.35544	8.4275
3.34246	8.3689
3.32958	8.3142
3.3168	8.2431
3.30411	8.1875
3.29153	8.1279
3.27903	8.0505
3.26664	7.9492
3.25433	7.8271
3.24212	7.7539
3.23	7.6892
3.21797	7.6316
3.20603	7.5371
3.19418	7.4197
3.18241	7.2849
3.17074	7.1826
3.15914	7.1577
3.14763	7.1316
3.13621	7.041
3.12487	6.8857
3.11361	6.6196
3.10243	6.3276
3.09133	6.0566
3.0803	5.793
3.06936	5.5007
3.0585	5.1462
3.04771	4.7915
3.037	4.4453
3.02636	4.0845
3.0158	3.7847
3.00531	3.5828
2.99489	3.4333
2.98454	3.3196
2.97427	3.291
2.96407	3.3525
2.95393	3.49
2.94387	3.5967
2.93387	3.6174
2.92394	3.4563
2.91408	3.1929
2.90429	2.9966
2.89456	2.9824
2.88489	2.9551
2.87529	2.8621
2.86576	2.8098
2.85628	2.8127
2.84687	2.6914
2.83752	2.4722
2.82823	2.1726
2.81901	1.9141
2.80984	1.7292
2.80073	1.6421
2.79168	1.5647
2.78269	1.4399
2.77376	1.1892
2.76488	0.9456
2.75606	0.8459
2.7473	0.7917
2.73859	0.6685
2.72994	1.1257
2.72134	1.9849
2.7128	2.7412
2.70431	3.2634
2.69587	3.7036
2.68748	4.06
2.67915	4.2793
2.67087	4.3918
2.66264	4.4609
2.65446	4.447
2.64633	4.387
2.63825	4.2436
2.63021	3.9006
2.62223	3.6069
2.6143	3.5969
2.60641	3.5163
2.59857	3.6223
2.59078	3.792
2.58304	3.7529
2.57534	3.3972
2.56768	2.9602
2.56008	2.5608
2.55251	2.3176
2.54499	2.313
2.53752	2.3105
2.53009	2.332
2.5227	2.4231
2.51536	2.6811
2.50806	2.9709
2.5008	3.2727
2.49358	3.6064
2.4864	3.865
2.47927	4.0925
2.47218	4.2541
2.46512	4.5786
2.45811	5.0403
2.45114	5.4304
2.4442	5.6601
2.43731	5.6289
2.43045	5.5898
2.42363	5.5984
2.41685	5.7734
2.41011	6.0727
2.40341	6.2134
2.39674	6.3525
2.39011	6.4739
2.38352	6.5415
2.37696	6.6435
2.37044	6.8086
2.36395	6.8901
2.35751	6.9023
2.35109	6.9221
2.34471	6.936
2.33836	6.9704
2.33205	7.0425
2.32578	7.2746
2.31953	7.5378
2.31332	7.7593
2.30714	8.0259
2.301	8.3515
2.29489	8.6396
2.28881	8.7617
2.28276	8.7192
2.27675	8.4004
2.27076	7.9516
2.26481	7.9682
2.25889	8.5195
2.253	8.9946
2.24714	9.0781
2.24131	9.0141
2.23551	8.8906
2.22974	8.5971
2.224	8.2378
2.21829	8.082
2.21261	8.0132
2.20696	8.0825
2.20134	8.2055
2.19574	8.2651
2.19018	8.1286
2.18464	7.9678
2.17913	7.8467
2.17365	7.7607
2.16819	7.5566
2.16277	7.1814
2.15737	7.1025
2.15199	7.1584
2.14665	7.3906
2.14133	7.7969
2.13603	8.2707
2.13077	8.5371
2.12552	8.5166
2.12031	8.334
2.11512	7.9023
2.10995	7.3369
2.10481	6.6684
2.0997	5.5276
2.09461	3.5605
2.08954	2.0977
2.0845	1.8838
2.07948	2.9875
