Name: Datolite CaBSiO4(OH)
Type: Mineral
Class: Silicates
Subclass: Nesosilicates (Ring Silicates) (Humite Group)
Particle Size: Fine  (less than 2 Micrometers)
Sample No.: datolite.1
Owner: JHU
Wavelength Range: IR
Origin: Hunt and Salisbury Collection #442B;  Sample from
Description: White particulate samples appear to be pure datolite,
Measurement: Transmission
X Units: Wavelength (micrometers)
Y Units: Transmittance (percent)
wavelength	value
25.0442	87.8592
24.3388	83.0154
23.6719	51.9999
23.0407	85.0642
22.4422	79.8045
21.8741	76.8533
21.334	58.9959
20.8199	52.2186
20.33	24.4628
19.8627	15.7324
19.4163	28.1298
18.9896	20.1767
18.5812	38.2499
18.19	60.1571
17.815	81.575
17.4551	50.2704
17.1094	81.9969
16.7772	89.6775
16.4576	91.3171
16.15	91.6179
15.8537	92.3904
15.568	91.5759
15.2925	90.1091
15.0265	87.4021
14.7697	78.2977
14.5214	51.5253
14.2814	72.4295
14.0492	84.7742
13.8244	84.6736
13.6067	82.2425
13.3957	78.949
13.1912	73.0589
12.9929	61.1722
12.8004	30.4472
12.6135	39.3656
12.432	69.574
12.2557	65.7308
12.0843	56.5497
11.9176	41.0473
11.7555	18.6254
11.5977	28.9452
11.444	15.0551
11.2944	8.6875
11.1487	22.102
11.0067	11.2778
10.8682	5.2754
10.7332	6.5332
10.6015	6.7734
10.473	9.4922
10.3476	12.7993
10.2251	15.622
10.1056	9.2344
9.98873	7.7656
9.87458	8.7988
9.763	16.977
9.65392	5.8091
9.54724	5.0127
9.44291	8.2837
9.34082	13.8193
9.24091	17.2753
9.14312	11.4101
9.04739	11.5586
8.95363	18.8164
8.8618	29.2192
8.77183	32.4535
8.68368	22.455
8.59727	25.0947
8.51257	41.0321
8.42951	54.2499
8.34807	61.7003
8.26819	66.1085
8.18981	69.3653
8.11292	72.0486
8.03745	74.5059
7.96337	76.5896
7.89064	78.4034
7.81924	80.0108
7.74911	81.3084
7.68023	82.6612
7.61256	83.7971
7.54608	84.4004
7.48074	84.5039
7.41653	84.4424
7.35341	84.5371
7.29136	84.8506
7.23034	84.9082
7.17033	84.5686
7.11132	83.4492
7.05327	81.7156
6.99616	80.7713
6.93996	80.8702
6.88467	81.493
6.83024	82.668
6.77667	84.3723
6.72393	85.9431
6.67201	87.4675
6.62089	88.9187
6.57054	90.0645
6.52095	90.6199
6.4721	90.8235
6.42398	91.2627
6.37657	91.9822
6.32986	92.4199
6.28382	92.8164
6.23845	93.3213
6.19373	94.1882
6.14965	94.3562
6.10619	94.4041
6.06334	94.3584
6.02109	94.2263
5.97942	94.6433
5.93832	94.8372
5.89778	95.1628
5.8578	95.3213
5.81835	95.5007
5.77943	95.96
5.74103	96.3369
5.70314	96.6467
5.66574	96.7639
5.62883	96.7434
5.5924	96.5283
5.55644	96.3779
5.52093	96.3135
5.48588	96.1211
5.45127	96.0974
5.41709	95.9746
5.38334	95.8191
5.35	95.7947
5.31708	96.0867
5.28456	96.3142
5.25243	96.585
5.2207	96.8066
5.18934	96.9768
5.15836	97.2305
5.12775	97.3572
5.09749	97.4824
5.0676	97.5915
5.03805	97.6472
5.00884	97.8047
4.97998	97.8479
4.95144	98.0271
4.92322	98.1326
4.89533	98.2263
4.86775	98.281
4.84048	98.3396
4.81351	98.4934
4.78684	98.5823
4.76047	98.5642
4.73439	98.5915
4.70859	98.5388
4.68306	98.5383
4.65782	98.6077
4.63284	98.6877
4.60814	98.7737
4.58369	98.8337
4.5595	98.8581
4.53557	98.8538
4.51188	98.821
4.48845	98.8411
4.46525	98.8406
4.44229	98.8162
4.41957	98.7668
4.39708	98.7185
4.37481	98.8074
4.35277	98.7195
4.33096	98.6824
4.30935	98.6443
4.28797	98.5105
4.26679	98.4475
4.24583	98.4294
4.22506	98.5334
4.2045	98.6374
4.18414	98.6091
4.16398	98.7087
4.14401	98.5945
4.12423	98.5515
4.10464	98.6814
4.08523	98.5369
4.066	98.5295
4.04696	98.5041
4.02809	98.3962
4.0094	98.2991
3.99088	98.3074
3.97253	98.1604
3.95435	98.1819
3.93634	98.1643
3.91848	98.2078
3.90079	98.2253
3.88326	98.0979
3.86589	98.0173
3.84867	98.1052
3.8316	98.0061
3.81468	97.9802
3.79791	97.9236
3.78129	97.9265
3.76482	97.8713
3.74848	97.8171
3.73229	97.6936
3.71624	97.6663
3.70032	97.5847
3.68454	97.5447
3.6689	97.4495
3.65338	97.4187
3.638	97.3611
3.62275	97.2595
3.60762	97.1951
3.59262	97.1423
3.57775	97.0623
3.56299	96.9177
3.54836	96.7014
3.53385	96.5725
3.51945	96.385
3.50517	95.6838
3.49101	96.0066
3.47696	95.9241
3.46303	95.8132
3.4492	95.5935
3.43549	95.2366
3.42188	94.4827
3.40838	94.6726
3.39499	95.1072
3.38171	95.0823
3.36852	95.3669
3.35544	95.4666
3.34246	95.3533
3.32958	95.3147
3.3168	95.158
3.30411	95.1326
3.29153	95.0393
3.27903	94.8127
3.26664	94.7009
3.25433	94.6819
3.24212	94.4744
3.23	94.3674
3.21797	94.2131
3.20603	94.0554
3.19418	93.9729
3.18241	93.8142
3.17074	93.635
3.15914	93.4548
3.14763	93.4031
3.13621	93.2371
3.12487	93.1169
3.11361	93.1502
3.10243	92.9109
3.09133	92.6355
3.0803	92.5037
3.06936	92.3543
3.0585	92.0525
3.04771	91.9187
3.037	91.5779
3.02636	91.5242
3.0158	91.4412
3.00531	91.3718
2.99489	91.2586
2.98454	91.2517
2.97427	91.3064
2.96407	91.3064
2.95393	91.2869
2.94387	91.1765
2.93387	90.9109
2.92394	90.0593
2.91408	88.5974
2.90429	86.9539
2.89456	83.45
2.88489	75.6873
2.87529	56.8407
2.86576	22.2773
2.85628	40.6229
2.84687	79.7078
2.83752	90.8211
2.82823	93.9539
2.81901	94.9343
2.80984	95.1531
2.80073	95.238
2.79168	95.0632
2.78269	95.2507
2.77376	94.8474
2.76488	94.8875
2.75606	95.0085
2.7473	94.9685
2.73859	95.2429
2.72994	95.2742
2.72134	95.1531
2.7128	95.4382
2.70431	95.0242
2.69587	94.988
2.68748	94.8835
2.67915	95.0017
2.67087	94.9568
2.66264	94.4587
2.65446	94.6921
2.64633	94.4177
2.63825	94.3679
2.63021	94.1375
2.62223	94.0828
2.6143	93.9812
2.60641	93.9177
2.59857	93.9226
2.59078	94.1326
2.58304	94.2
2.57534	93.9812
2.56768	93.6335
2.56008	93.5271
2.55251	93.5232
2.54499	93.4216
2.53752	93.4822
2.53009	93.6052
2.5227	93.0173
2.51536	93.1716
2.50806	93.2771
2.5008	92.9294
2.49358	93.0134
2.4864	92.6599
2.47927	92.6502
2.47218	92.2654
2.46512	92.2205
2.45811	92.4783
2.45114	92.4705
2.4442	92.2498
2.43731	92.0798
2.43045	92.1912
2.42363	92.0857
2.41685	91.5701
2.41011	91.3748
2.40341	91.6951
2.39674	91.4607
2.39011	91.6365
2.38352	91.7263
2.37696	91.949
2.37044	91.8689
2.36395	91.8005
2.35751	91.8357
2.35109	91.8123
2.34471	91.7205
2.33836	91.283
2.33205	91.5349
2.32578	91.5193
2.31953	91.2966
2.31332	91.3533
2.30714	91.5857
2.301	91.156
2.29489	91.3591
2.28881	91.2283
2.28276	90.867
2.27675	90.906
2.27076	91.2205
2.26481	90.8318
2.25889	90.6091
2.253	91.1326
2.24714	90.7986
2.24131	90.658
2.23551	90.8611
2.22974	90.6795
2.224	90.3201
2.21829	90.8435
2.21261	90.5974
2.20696	90.5642
2.20134	90.3748
2.19574	90.5564
2.19018	90.3357
2.18464	90.406
2.17913	90.1951
2.17365	90.2673
2.16819	90.3435
2.16277	90.1111
2.15737	90.5349
2.15199	89.9021
2.14665	89.9568
2.14133	90.117
2.13603	89.9256
2.13077	90.2107
2.12552	89.4763
2.12031	90.5115
2.11512	89.9256
2.10995	90.3318
2.10481	90.1248
2.0997	90.117
2.09461	90.0701
2.08954	90.2888
2.0845	90.4099
2.07948	89.9568
