Name: EETA 79001
Type: Stony Meteorites
Class: Achondrite
Subclass: Shergottite
Particle Size: 0-75 micrometers
Sample No.: EETA 79001
Owner: JHU
Origin: Meteorite found in Antarctic in 1979.  USNM powder with sample No.
Description: None.
Measurement: Bidirectional reflectance
X Units: Wavelength (micrometers)
Y Units: Reflectance (percent)
wavelength	value
25.044	1.3806
24.339	1.4006
23.672	1.2217
23.041	1.0649
22.442	1.092
21.874	1.1611
21.334	1.3462
20.82	1.4907
20.33	1.6201
19.863	1.7532
19.416	1.7803
18.99	1.5994
18.581	1.3953
18.19	1.3213
17.815	1.3806
17.455	1.283
17.109	1.1279
16.777	1.0476
16.458	0.9744
16.15	0.7686
15.854	0.6255
15.568	0.5872
15.292	0.5417
15.027	0.562
14.77	0.6091
14.521	0.8147
14.281	0.9709
14.049	1.0051
13.824	0.9397
13.607	0.9482
13.396	1.1453
13.191	1.2961
12.993	1.3665
12.8	1.3318
12.614	1.291
12.432	1.2466
12.256	1.1519
12.084	1.0605
11.918	0.9897
11.755	1.0403
11.598	1.1829
11.444	1.3904
11.294	1.5315
11.149	1.4419
11.007	1.2947
10.868	1.3381
10.733	1.4499
10.602	1.3684
10.473	1.2847
10.348	1.2717
10.225	1.23
10.106	1.281
9.9887	1.3667
9.8746	1.4307
9.763	1.4485
9.6539	1.4768
9.5472	1.5264
9.4429	1.5137
9.3408	1.4878
9.2409	1.5935
9.1431	1.7295
9.0474	1.7693
8.9536	1.6572
8.8618	1.405
8.7718	1.1494
8.6837	0.8516
8.5973	0.6748
8.5126	0.645
8.4295	0.6877
8.3481	0.7808
8.2682	0.9202
8.1898	1.1062
8.1129	1.3501
8.0374	1.613
7.9634	1.8643
7.8906	2.1191
7.8192	2.3726
7.7491	2.6077
7.6802	2.8237
7.6126	3.0173
7.5461	3.2366
7.4807	3.4722
7.4165	3.6877
7.3534	3.8857
7.2914	4.0422
7.2303	4.1833
7.1703	4.2903
7.1113	4.4048
7.0533	4.531
6.9962	4.6633
6.94	4.7678
6.8847	4.8572
6.8302	4.9355
6.7767	4.9778
6.7239	4.968
6.672	4.9219
6.6209	4.8535
6.5705	4.8186
6.5209	4.813
6.4721	4.8137
6.424	4.7934
6.3766	4.74
6.3299	4.6684
6.2838	4.6142
6.2385	4.5986
6.1937	4.6221
6.1496	4.6863
6.1062	4.7124
6.0633	4.6838
6.0211	4.657
5.9794	4.7058
5.9383	4.8396
5.8978	5.0251
5.8578	5.178
5.8184	5.2903
5.7794	5.375
5.741	5.4214
5.7031	5.4314
5.6657	5.4473
5.6288	5.5456
5.5924	5.7124
5.5564	5.8681
5.5209	5.9455
5.4859	5.948
5.4513	5.9194
5.4171	5.8901
5.3833	5.8823
5.35	5.8242
5.3171	5.6936
5.2846	5.5669
5.2524	5.4905
5.2207	5.4834
5.1893	5.5173
5.1584	5.6118
5.1277	5.7341
5.0975	5.8508
5.0676	5.956
5.038	6.0703
5.0088	6.1946
4.98	6.3464
4.9514	6.5107
4.9232	6.6606
4.8953	6.7937
4.8678	6.9221
4.8405	7.0688
4.8135	7.2207
4.7868	7.3616
4.7605	7.4851
4.7344	7.6284
4.7086	7.801
4.6831	7.9753
4.6578	8.1465
4.6328	8.2839
4.6081	8.4143
4.5837	8.5151
4.5595	8.5959
4.5356	8.6699
4.5119	8.7229
4.4884	8.7702
4.4652	8.8095
4.4423	8.8476
4.4196	8.8796
4.3971	8.9172
4.3748	8.9438
4.3528	8.9682
4.331	8.9939
4.3094	9.0234
4.288	9.0503
4.2668	9.0813
4.2458	9.1137
4.2251	9.1572
4.2045	9.1804
4.1841	9.2119
4.164	9.2341
4.144	9.2634
4.1242	9.2912
4.1046	9.3125
4.0852	9.3344
4.066	9.3662
4.047	9.3813
4.0281	9.4011
4.0094	9.4194
3.9909	9.4397
3.9725	9.4577
3.9544	9.4717
3.9363	9.4875
3.9185	9.5105
3.9008	9.52
3.8833	9.5312
3.8659	9.5493
3.8487	9.5576
3.8316	9.5588
3.8147	9.5727
3.7979	9.5813
3.7813	9.5962
3.7648	9.6133
3.7485	9.625
3.7323	9.6284
3.7162	9.6323
3.7003	9.6352
3.6845	9.6384
3.6689	9.6416
3.6534	9.6491
3.638	9.6494
3.6227	9.6404
3.6076	9.634
3.5926	9.6321
3.5777	9.6277
3.563	9.6067
3.5484	9.601
3.5338	9.5791
3.5195	9.5564
3.5052	9.4946
3.491	9.5007
3.477	9.4992
3.463	9.4941
3.4492	9.4758
3.4355	9.4319
3.4219	9.3623
3.4084	9.3479
3.395	9.3972
3.3817	9.3984
3.3685	9.4031
3.3554	9.406
3.3425	9.4018
3.3296	9.4001
3.3168	9.394
3.3041	9.3716
3.2915	9.3589
3.279	9.3381
3.2666	9.32
3.2543	9.2846
3.2421	9.2688
3.23	9.2461
3.218	9.2168
3.206	9.1911
3.1942	9.1694
3.1824	9.1462
3.1707	9.1169
3.1591	9.0908
3.1476	9.07
3.1362	9.039
3.1249	9.018
3.1136	8.9922
3.1024	8.9678
3.0913	8.9504
3.0803	8.9314
3.0694	8.9065
3.0585	8.8962
3.0477	8.8862
3.037	8.8637
3.0264	8.8305
3.0158	8.8103
3.0053	8.7759
2.9949	8.751
2.9845	8.728
2.9743	8.7095
2.9641	8.6899
2.9539	8.6679
2.9439	8.6609
2.9339	8.6521
2.9239	8.6413
2.9141	8.6404
2.9043	8.6467
2.8946	8.6545
2.8849	8.6521
2.8753	8.6721
2.8658	8.6821
2.8563	8.7014
2.8469	8.7317
2.8375	8.7522
2.8282	8.7861
2.819	8.8259
2.8098	8.8701
2.8007	8.9199
2.7917	8.977
2.7827	9.052
2.7738	9.1255
2.7649	9.2214
2.7561	9.3054
2.7473	9.3991
2.7386	9.4968
2.7299	9.5786
2.7213	9.6401
2.7128	9.6928
2.7043	9.7278
2.6959	9.7312
2.6875	9.7275
2.6791	9.7282
2.6709	9.7275
2.6626	9.7085
2.6545	9.6782
2.6463	9.6426
2.6382	9.5901
2.6302	9.5486
2.6222	9.5061
2.6143	9.4531
2.6064	9.416
2.5986	9.3425
2.5908	9.2883
2.583	9.2473
2.5753	9.188
2.5677	9.1328
2.5601	9.0481
2.5525	9.0176
2.545	8.9563
2.5375	8.8774
2.5301	8.8254
2.5227	8.76
2.5154	8.6885
2.5081	8.6306
2.5008	8.5657
2.4936	8.5032
2.4864	8.4548
2.4793	8.3852
2.4722	8.332
2.4651	8.2646
2.4581	8.2234
2.4511	8.1435
2.4442	8.0984
2.4373	8.0361
2.4305	7.9704
2.4236	7.9192
2.4169	7.864
2.4101	7.7912
2.4034	7.7639
2.3967	7.6816
2.3901	7.6279
2.3835	7.5657
2.377	7.5244
2.3704	7.4609
2.364	7.4175
2.3575	7.3769
2.3511	7.3286
2.3447	7.2959
2.3384	7.2414
2.3321	7.2182
2.3258	7.1828
2.3195	7.1345
2.3133	7.0578
2.3071	7.0371
2.301	6.9892
2.2949	6.9692
2.2888	6.9404
2.2828	6.8784
2.2767	6.8547
2.2708	6.8266
2.2648	6.7976
2.2589	6.7405
2.253	6.7385
2.2471	6.7126
2.2413	6.6701
2.2355	6.6394
2.2297	6.6262
2.224	6.6057
2.2183	6.5447
2.2126	6.5444
2.207	6.5159
2.2013	6.498
2.1957	6.4914
2.1902	6.4548
2.1846	6.4414
2.1791	6.4209
2.1736	6.3948
2.1682	6.3909
2.1628	6.3559
2.1574	6.3479
2.152	6.3386
2.1466	6.3201
2.1413	6.2932
2.136	6.2746
2.1308	6.2778
2.1255	6.2544
2.1203	6.2073
2.1151	6.2126
2.11	6.199
2.1048	6.1846
2.0997	6.1716
2.0946	6.157
2.0895	6.1516
2.0845	6.1772
2.0795	6.1431
