Name: Microcline KAlSi3O8
Type: Mineral
Class: Silicates
Subclass: Tectosilicates (Framework Silicates); (Feldspar Group)
Particle Size: Fine  (Less than 2 micrometers)
Sample No.: micro.1
Owner: JHU
Wavelength Range: IR
Origin: Park County, Colorado via the Smithsonian (sample no. NMNH
Description: Sample was a 19.5 g fragment, light green in color. A
Measurement: Transmission
X Units: Wavelength (micrometers)
Y Units: Transmittance (percent)
wavelength	value
25.0442	55.4159
24.3388	43.3554
23.6719	27.0585
23.0407	30.0741
22.4422	39.5204
21.8741	56.4862
21.334	57.1473
20.8199	71.1483
20.33	80.8142
19.8627	81.7752
19.4163	79.0686
18.9896	67.6917
18.5812	52.4164
18.19	66.5648
17.815	58.6903
17.4551	43.0521
17.1094	35.1689
16.7772	46.6049
16.4576	48.9813
16.15	70.2986
15.8537	76.4061
15.568	65.3524
15.2925	64.4549
15.0265	80.6885
14.7697	83.656
14.5214	83.1892
14.2814	79.7254
14.0492	70.4346
13.8244	53.3558
13.6067	58.4532
13.3957	68.659
13.1912	65.1893
12.9929	54.0438
12.8004	63.796
12.6135	77.9993
12.432	86.2239
12.2557	87.0391
12.0843	86.1621
11.9176	84.3758
11.7555	81.8113
11.5977	78.7278
11.444	75.1858
11.2944	71.7029
11.1487	67.7747
11.0067	63.3162
10.8682	58.3724
10.7332	52.7689
10.6015	46.2872
10.473	38.8119
10.3476	30.7704
10.2251	21.9628
10.1056	13.4399
9.98873	8.374
9.87458	6.897
9.763	9.0669
9.65392	10.8193
9.54724	10.8452
9.44291	12.5827
9.34082	16.4187
9.24091	17.8806
9.14312	18.3559
9.04739	19.7019
8.95363	19.8791
8.8618	18.8696
8.77183	15.5991
8.68368	18.832
8.59727	25.4243
8.51257	32.5678
8.42951	39.7685
8.34807	46.1749
8.26819	51.3939
8.18981	55.4247
8.11292	58.6466
8.03745	61.3177
7.96337	63.8763
7.89064	65.7933
7.81924	67.451
7.74911	68.97
7.68023	70.1312
7.61256	71.3792
7.54608	72.4134
7.48074	73.3694
7.41653	74.2093
7.35341	74.8853
7.29136	75.6705
7.23034	76.3189
7.17033	77.3912
7.11132	78.2249
7.05327	78.6468
6.99616	79.1951
6.93996	79.885
6.88467	80.2183
6.83024	80.479
6.77667	80.7857
6.72393	81.1846
6.67201	81.6429
6.62089	81.9973
6.57054	82.4446
6.52095	82.7141
6.4721	83.0323
6.42398	83.1907
6.37657	83.4024
6.32986	83.4737
6.28382	83.6267
6.23845	83.7586
6.19373	83.888
6.14965	83.6866
6.10619	83.7615
6.06334	84.1695
6.02109	85.1206
5.97942	85.9563
5.93832	85.6106
5.89778	85.429
5.8578	85.5857
5.81835	85.7605
5.77943	85.7439
5.74103	85.8538
5.70314	85.8601
5.66574	85.7747
5.62883	85.7339
5.5924	86.0022
5.55644	86.1111
5.52093	86.3792
5.48588	86.6912
5.45127	86.8157
5.41709	86.9768
5.38334	87.0755
5.35	87.2075
5.31708	87.4182
5.28456	87.5474
5.25243	87.6643
5.2207	87.7268
5.18934	87.9885
5.15836	88.177
5.12775	88.2591
5.09749	88.4778
5.0676	88.6101
5.03805	88.7122
5.00884	88.784
4.97998	88.8845
4.95144	88.9646
4.92322	88.9329
4.89533	89.0144
4.86775	89.0364
4.84048	89.0779
4.81351	89.0984
4.78684	89.1326
4.76047	89.1626
4.73439	89.2014
4.70859	89.1609
4.68306	89.1975
4.65782	89.2151
4.63284	89.2644
4.60814	89.5086
4.58369	89.4207
4.5595	89.4207
4.53557	89.5012
4.51188	89.4983
4.48845	89.5613
4.46525	89.5886
4.44229	89.5925
4.41957	89.6946
4.39708	89.7122
4.37481	89.7405
4.35277	89.7522
4.33096	89.7825
4.30935	89.7366
4.28797	89.8128
4.26679	89.8098
4.24583	89.846
4.22506	89.8311
4.2045	89.8506
4.18414	89.8196
4.16398	89.8247
4.14401	89.8064
4.12423	89.8506
4.10464	89.7876
4.08523	89.8425
4.066	89.7544
4.04696	89.7937
4.02809	89.7354
4.0094	89.7693
3.99088	89.6873
3.97253	89.6802
3.95435	89.6729
3.93634	89.761
3.91848	89.7366
3.90079	89.7305
3.88326	89.6121
3.86589	89.5745
3.84867	89.5513
3.8316	89.6035
3.81468	89.5921
3.79791	89.583
3.78129	89.4942
3.76482	89.4851
3.74848	89.4602
3.73229	89.4407
3.71624	89.3601
3.70032	89.291
3.68454	89.3347
3.6689	89.1809
3.65338	89.1824
3.638	89.1743
3.62275	89.0562
3.60762	88.9905
3.59262	89.0083
3.57775	89.0271
3.56299	88.9055
3.54836	88.76
3.53385	88.7722
3.51945	88.6406
3.50517	88.5974
3.49101	88.417
3.47696	88.2412
3.46303	88.1853
3.4492	88.0037
3.43549	88.0969
3.42188	88.0349
3.40838	87.9016
3.39499	87.8816
3.38171	87.9539
3.36852	88.0117
3.35544	87.7674
3.34246	87.8565
3.32958	87.93
3.3168	87.8884
3.30411	87.8955
3.29153	87.916
3.27903	87.7832
3.26664	87.7168
3.25433	87.584
3.24212	87.6096
3.23	87.5672
3.21797	87.4314
3.20603	87.3438
3.19418	87.2166
3.18241	87.1514
3.17074	87.0105
3.15914	86.8426
3.14763	86.7451
3.13621	86.5274
3.12487	86.4534
3.11361	86.1883
3.10243	85.99
3.09133	85.6348
3.0803	85.4619
3.06936	85.3106
3.0585	85.0108
3.04771	84.8396
3.037	84.6719
3.02636	84.5537
3.0158	84.322
3.00531	84.0782
2.99489	83.739
2.98454	83.4588
2.97427	83.0906
2.96407	82.6341
2.95393	82.3391
2.94387	82.1199
2.93387	81.8572
2.92394	81.7488
2.91408	81.6912
2.90429	81.6868
2.89456	81.7444
2.88489	81.7019
2.87529	81.6775
2.86576	81.719
2.85628	81.8069
2.84687	81.8562
2.83752	82.1507
2.82823	82.3343
2.81901	82.6238
2.80984	83.0042
2.80073	83.1824
2.79168	83.3772
2.78269	83.6429
2.77376	83.8992
2.76488	84.135
2.75606	84.4568
2.7473	84.7429
2.73859	84.8621
2.72994	84.8074
2.72134	84.7898
2.7128	84.8992
2.70431	85.0506
2.69587	85.1453
2.68748	85.1433
2.67915	85.1931
2.67087	85.0935
2.66264	84.9773
2.65446	84.949
2.64633	84.8416
2.63825	84.8963
2.63021	84.8269
2.62223	84.7659
2.6143	84.7405
2.60641	84.5408
2.59857	84.5594
2.59078	84.5574
2.58304	84.7112
2.57534	84.3611
2.56768	84.2639
2.56008	84.2386
2.55251	84.2073
2.54499	84.074
2.53752	84.1853
2.53009	84.0315
2.5227	83.8631
2.51536	83.8245
2.50806	83.9593
2.5008	83.76
2.49358	83.5642
2.4864	83.6487
2.47927	83.5496
2.47218	83.4939
2.46512	83.5418
2.45811	83.3289
2.45114	83.2742
2.4442	83.3211
2.43731	83.1638
2.43045	82.9978
2.42363	83.034
2.41685	83.0613
2.41011	82.9978
2.40341	82.7117
2.39674	82.8416
2.39011	82.6492
2.38352	82.6111
2.37696	82.574
2.37044	82.6258
2.36395	82.3621
2.35751	82.2849
2.35109	82.5154
2.34471	82.449
2.33836	82.1385
2.33205	82.0994
2.32578	82.1521
2.31953	82.156
2.31332	81.8367
2.30714	81.9617
2.301	81.9724
2.29489	81.865
2.28881	81.7576
2.28276	81.6482
2.27675	81.6131
2.27076	81.8279
2.26481	81.7312
2.25889	81.5476
2.253	81.4812
2.24714	81.5008
2.24131	81.3572
2.23551	81.4803
2.22974	81.4178
2.224	81.3836
2.21829	81.3592
2.21261	81.1795
2.20696	81.2039
2.20134	81.325
2.19574	81.0818
2.19018	81.1756
2.18464	81.3416
2.17913	80.9969
2.17365	80.9539
2.16819	81.0047
2.16277	81.1248
2.15737	81.0476
2.15199	80.8357
2.14665	80.9031
2.14133	80.7078
2.13603	80.8016
2.13077	80.9373
2.12552	81.1014
2.12031	81.1482
2.11512	80.8826
2.10995	81.0164
2.10481	80.8484
2.0997	81.0633
2.09461	81.4422
2.08954	80.9568
2.0845	81.0857
2.07948	81.1599
