Name: Tremolite Ca2(Mg, Fe+2)5Si8O22(OH)2
Type: Mineral
Class: Silicates
Subclass: Inosilicates (Chain Silicates); (Amphibole Group)
Particle Size: Fine  (Less than 2  Micrometers)
Sample No.: tremol.1
Owner: JHU
Wavelength Range: IR
Origin: Balmat, New York, USA via Bruce Hemingway, USGS
Description: The sample consisted of 2-3 cm long x 1-2 cm wide mass
Measurement: Transmission
X Units: Wavelength (micrometers)
Y Units: Transmittance (percent)
wavelength	value
25.0442	48.4843
24.3388	52.1952
23.6719	38.8456
23.0407	35.3358
22.4422	16.8027
21.8741	14.75
21.334	14.7148
20.8199	22.7695
20.33	38.7548
19.8627	29.1962
19.4163	28.9726
18.9896	37.0214
18.5812	43.4628
18.19	44.5946
17.815	64.617
17.4551	74.2967
17.1094	79.8816
16.7772	83.3699
16.4576	85.5056
16.15	87.6424
15.8537	87.8538
15.568	79.5037
15.2925	81.0057
15.0265	72.9568
14.7697	72.6277
14.5214	61.0135
14.2814	78.7913
14.0492	84.4827
13.8244	81.6736
13.6067	79.6258
13.3957	71.076
13.1912	51.7323
12.9929	75.7366
12.8004	86.7093
12.6135	89.8728
12.432	89.7014
12.2557	88.2893
12.0843	85.5945
11.9176	82.1541
11.7555	77.6248
11.5977	72.0135
11.444	65.785
11.2944	57.3265
11.1487	47.7206
11.0067	35.496
10.8682	21.6777
10.7332	30.0033
10.6015	20.2446
10.473	16.1352
10.3476	22.8525
10.2251	24.3312
10.1056	18.4697
9.98873	16.6232
9.87458	22.3432
9.763	28.4516
9.65392	35.247
9.54724	30.6984
9.44291	28.5724
9.34082	31.7148
9.24091	36.3461
9.14312	31.7812
9.04739	26.3437
8.95363	32.4511
8.8618	41.806
8.77183	51.4354
8.68368	59.0606
8.59727	64.3934
8.51257	67.8682
8.42951	70.8057
8.34807	73.3514
8.26819	75.6321
8.18981	77.5003
8.11292	79.045
8.03745	80.3787
7.96337	81.792
7.89064	83.0144
7.81924	83.9016
7.74911	84.6712
7.68023	85.3897
7.61256	86.1963
7.54608	86.9104
7.48074	87.3484
7.41653	87.7969
7.35341	88.2881
7.29136	88.7881
7.23034	89.22
7.17033	90.0823
7.11132	90.5635
7.05327	90.8005
6.99616	91.2092
6.93996	91.793
6.88467	92.0198
6.83024	92.0674
6.77667	92.3352
6.72393	92.5684
6.67201	92.9219
6.62089	93.2288
6.57054	93.6111
6.52095	93.7229
6.4721	93.8711
6.42398	94.0046
6.37657	93.8655
6.32986	93.7754
6.28382	93.665
6.23845	93.6521
6.19373	93.6419
6.14965	93.4255
6.10619	93.4309
6.06334	93.7688
6.02109	94.7307
5.97942	95.5559
5.93832	95.071
5.89778	94.8171
5.8578	94.9395
5.81835	95.2405
5.77943	95.3965
5.74103	95.5969
5.70314	95.71
5.66574	95.6814
5.62883	95.7576
5.5924	95.7693
5.55644	95.946
5.52093	96.0547
5.48588	96.1184
5.45127	96.1338
5.41709	96.2991
5.38334	96.3206
5.35	96.3936
5.31708	96.3633
5.28456	96.4932
5.25243	96.5935
5.2207	96.6887
5.18934	96.7998
5.15836	96.7673
5.12775	96.675
5.09749	96.7803
5.0676	96.8025
5.03805	96.8857
5.00884	96.9348
4.97998	97.0088
4.95144	97.1191
4.92322	97.123
4.89533	97.1462
4.86775	97.1348
4.84048	97.1692
4.81351	97.1982
4.78684	97.2288
4.76047	97.2751
4.73439	97.2996
4.70859	97.3301
4.68306	97.3523
4.65782	97.4199
4.63284	97.4521
4.60814	97.6826
4.58369	97.54
4.5595	97.5225
4.53557	97.5508
4.51188	97.5068
4.48845	97.5124
4.46525	97.5322
4.44229	97.5095
4.41957	97.5017
4.39708	97.5127
4.37481	97.5044
4.35277	97.4482
4.33096	97.4773
4.30935	97.4121
4.28797	97.3906
4.26679	97.3826
4.24583	97.3528
4.22506	97.3289
4.2045	97.2949
4.18414	97.3005
4.16398	97.2175
4.14401	97.2019
4.12423	97.2107
4.10464	97.1609
4.08523	97.1306
4.066	97.1145
4.04696	97.1223
4.02809	97.1169
4.0094	97.1233
3.99088	97.0115
3.97253	96.8845
3.95435	96.9358
3.93634	96.9685
3.91848	96.9778
3.90079	96.8884
3.88326	96.8909
3.86589	96.8005
3.84867	96.7971
3.8316	96.7737
3.81468	96.7478
3.79791	96.6218
3.78129	96.6702
3.76482	96.6404
3.74848	96.5808
3.73229	96.4978
3.71624	96.449
3.70032	96.3396
3.68454	96.3206
3.6689	96.2312
3.65338	96.2449
3.638	96.115
3.62275	96.054
3.60762	96.0085
3.59262	95.9377
3.57775	95.9304
3.56299	95.8806
3.54836	95.7698
3.53385	95.7351
3.51945	95.5906
3.50517	95.5007
3.49101	95.3718
3.47696	95.3557
3.46303	95.2698
3.4492	95.2507
3.43549	95.1897
3.42188	95.1003
3.40838	94.885
3.39499	94.9382
3.38171	95.01
3.36852	94.9509
3.35544	94.801
3.34246	94.74
3.32958	94.6599
3.3168	94.656
3.30411	94.5964
3.29153	94.5901
3.27903	94.4963
3.26664	94.3904
3.25433	94.3044
3.24212	94.3694
3.23	94.2117
3.21797	94.1921
3.20603	94.073
3.19418	93.9138
3.18241	93.8577
3.17074	93.6721
3.15914	93.5974
3.14763	93.4827
3.13621	93.3904
3.12487	93.3362
3.11361	93.2087
3.10243	92.9548
3.09133	92.7068
3.0803	92.5701
3.06936	92.4631
3.0585	92.2112
3.04771	92.0862
3.037	91.8948
3.02636	91.7927
3.0158	91.596
3.00531	91.2986
2.99489	91.178
2.98454	90.8069
2.97427	90.3655
2.96407	90.1839
2.95393	89.8953
2.94387	89.6697
2.93387	89.5291
2.92394	89.449
2.91408	89.3113
2.90429	89.2361
2.89456	89.1853
2.88489	89.0838
2.87529	89.0193
2.86576	88.9773
2.85628	88.9724
2.84687	89.034
2.83752	89.1189
2.82823	89.1423
2.81901	89.5193
2.80984	89.5349
2.80073	89.658
2.79168	89.7673
2.78269	89.908
2.77376	90.1384
2.76488	90.0857
2.75606	90.2048
2.7473	90.4099
2.73859	90.2673
2.72994	89.0759
2.72134	71.6639
2.7128	90.988
2.70431	90.8259
2.69587	90.8416
2.68748	90.8836
2.67915	90.8123
2.67087	90.8367
2.66264	90.6912
2.65446	90.5642
2.64633	90.5134
2.63825	90.488
2.63021	90.3611
2.62223	90.2166
2.6143	90.1453
2.60641	90.1101
2.59857	89.9529
2.59078	89.9304
2.58304	89.8318
2.57534	89.6638
2.56768	89.5701
2.56008	89.6209
2.55251	89.489
2.54499	89.2898
2.53752	89.283
2.53009	89.0896
2.5227	88.8064
2.51536	88.9021
2.50806	88.9802
2.5008	88.5867
2.49358	88.7117
2.4864	88.5408
2.47927	88.492
2.47218	88.5623
2.46512	88.2537
2.45811	88.2166
2.45114	88.1375
2.4442	88.0427
2.43731	88.0213
2.43045	88.0174
2.42363	87.8455
2.41685	87.8396
2.41011	87.8396
2.40341	87.4158
2.39674	87.4881
2.39011	87.2732
2.38352	87.156
2.37696	87.3689
2.37044	87.3709
2.36395	87.242
2.35751	86.9881
2.35109	87.3396
2.34471	86.9685
2.33836	86.8455
2.33205	86.7302
2.32578	86.8513
2.31953	86.5232
2.31332	86.7029
2.30714	86.6502
2.301	86.4158
2.29489	86.8455
2.28881	86.533
2.28276	86.3435
2.27675	86.4236
2.27076	86.4998
2.26481	86.4295
2.25889	86.5701
2.253	86.6248
2.24714	85.9451
2.24131	86.4568
2.23551	86.3709
2.22974	86.3709
2.224	86.2185
2.21829	86.0623
2.21261	86.4763
2.20696	86.0799
2.20134	86.0115
2.19574	86.1677
2.19018	86.1052
2.18464	86.0076
2.17913	85.8826
2.17365	86.2127
2.16819	85.9842
2.16277	86.033
2.15737	86.2576
2.15199	86.033
2.14665	86.1189
2.14133	85.781
2.13603	86.2986
2.13077	86.1482
2.12552	86.7205
2.12031	86.0232
2.11512	85.9783
2.10995	86.1658
2.10481	86.3123
2.0997	86.3533
2.09461	86.7732
2.08954	86.2888
2.0845	86.4998
2.07948	86.8904
