Name: Rhyolitic obsidian
Type: Rocks
Class: Igneous
Subclass: Intermediate
Particle Size: Solid
Sample No.: Obsidian.H1
Owner: JHU
Origin: Mono Lake, California via Smithsonian (Cat. No.: NMNH
Description: This sample appears to be a black homogenous glass with good
Measurement: Directional (10 degree) hemispherical reflectance
X Units: Wavelength (micrometers)
Y Units: Reflectance (percent)
wavelength	value
14.0112	6.5213
13.7147	5.8893
13.4304	5.9704
13.1577	6.3211
12.8959	6.1139
12.6443	5.8125
12.4023	5.1684
12.1694	4.8684
11.945	5.0768
11.7289	5.9742
11.5203	6.9215
11.3191	7.8417
11.1248	8.7215
10.937	9.9171
10.7555	11.1426
10.5799	12.7966
10.4099	14.869
10.2454	17.2542
10.0859	19.7308
9.9313	22.2036
9.7814	24.7213
9.636	27.3051
9.4948	30.1786
9.3577	33.2896
9.2245	36.0927
9.095	35.1557
8.9691	29.2248
8.8467	23.7667
8.7275	20.1951
8.6116	17.9651
8.4986	16.5443
8.3886	15.4659
8.2814	14.039
8.1769	11.5976
8.075	7.5511
7.9756	3.214
7.8786	1.1998
7.784	0.5121
7.6916	0.2894
7.6014	0.2585
7.5133	0.314
7.4272	0.3945
7.343	0.5128
7.2607	0.6159
7.1803	0.7312
7.1016	0.836
7.0246	0.9182
6.9493	0.9921
6.8755	1.1004
6.8034	1.2403
6.7327	1.2717
6.6634	1.3756
6.5956	1.4473
6.5292	1.5304
6.464	1.5949
6.4002	1.6676
6.3376	1.7008
6.2762	1.8275
6.216	1.8808
6.157	1.8548
6.099	1.7967
6.0421	1.8129
5.9863	1.834
5.9315	1.9193
5.8777	1.9826
5.8249	2.0712
5.773	2.1084
5.722	2.1335
5.6719	2.1612
5.6227	2.1958
5.5744	2.2008
5.5268	2.2387
5.4801	2.2439
5.4341	2.3156
5.3889	2.3353
5.3445	2.3761
5.3008	2.4078
5.2578	2.4349
5.2154	2.4994
5.1738	2.5021
5.1328	2.5533
5.0925	2.5709
5.0528	2.5936
5.0137	2.6691
4.9752	2.7101
4.9373	2.7954
4.9	2.8859
4.8632	3.0251
4.827	3.1413
4.7913	3.1932
4.7561	3.2688
4.7215	3.3108
4.6873	3.3431
4.6536	3.3904
4.6205	3.4137
4.5877	3.4476
4.5555	3.4917
4.5237	3.5475
4.4923	3.5948
4.4614	3.6652
4.4309	3.7167
4.4008	3.806
4.3711	3.8728
4.3418	3.9424
4.3129	4.0327
4.2844	4.1332
4.2563	4.1867
4.2285	4.2778
4.2011	4.3884
4.174	4.433
4.1473	4.5206
4.1209	4.5945
4.0949	4.634
4.0692	4.6826
4.0438	4.7262
4.0187	4.7468
3.994	4.7649
3.9695	4.8119
3.9453	4.8171
3.9214	4.8363
3.8979	4.8371
3.8746	4.8445
3.8515	4.8572
3.8288	4.8429
3.8063	4.8236
3.7841	4.8492
3.7621	4.853
3.7404	4.8506
3.7189	4.86
3.6977	4.8537
3.6767	4.8278
3.656	4.8614
3.6355	4.8345
3.6152	4.7899
3.5951	4.7747
3.5753	4.7667
3.5557	4.748
3.5363	4.7421
3.5171	4.7142
3.4981	4.669
3.4793	4.6366
3.4607	4.5921
3.4423	4.5972
3.4241	4.6146
3.4061	4.4543
3.3883	4.4004
3.3707	4.3348
3.3533	4.3099
3.336	4.2468
3.3189	4.2288
3.302	4.1862
3.2853	4.1388
3.2687	4.0978
3.2523	4.0717
3.2361	4.0125
3.22	4.0008
3.204	3.9902
3.1883	3.9572
3.1727	3.9457
3.1572	3.9082
3.1419	3.9073
3.1268	3.8388
3.1117	3.8519
3.0969	3.8243
3.0821	3.7956
3.0675	3.8023
3.0531	3.7886
3.0388	3.7572
3.0246	3.8039
3.0105	3.7371
2.9966	3.7387
2.9828	3.678
2.9692	3.6902
2.9556	3.6925
2.9422	3.6795
2.9289	3.6825
2.9157	3.6431
2.9027	3.6665
2.8897	3.5909
2.8769	3.6421
2.8642	3.5641
2.8516	3.5911
2.8391	3.555
2.8267	3.4847
2.8144	3.4636
2.8022	3.5049
2.7902	3.5372
2.7782	3.547
2.7664	3.529
2.7546	3.5559
2.7429	3.5423
2.7314	3.7263
2.7199	3.9977
2.7085	4.3369
2.6973	4.8199
2.6861	5.0177
2.675	5.1441
2.664	5.1891
2.6531	5.2589
2.6423	5.32
2.6315	5.2634
2.6209	5.3386
2.6103	5.3213
2.5999	5.3381
2.5895	5.4005
2.5792	5.3376
2.569	5.3691
2.5588	5.3327
2.5487	5.3449
2.5388	5.328
2.5289	5.2714
2.519	5.3602
2.5093	5.2978
2.4996	5.3078
2.49	5.3794
2.4805	5.4202
2.471	5.3611
2.4616	5.3719
2.4523	5.3906
2.4431	5.4065
2.4339	5.3283
2.4248	5.3517
2.4157	5.4844
2.4068	5.4478
2.3979	5.445
2.389	5.4112
2.3802	5.3737
2.3715	5.4909
2.3629	5.3367
2.3543	5.3841
2.3458	5.453
2.3373	5.3611
2.3289	5.3465
2.3206	5.4187
2.3123	5.3906
2.3041	5.3592
2.2959	5.2924
2.2878	5.3351
2.2798	5.3506
2.2718	5.3299
2.2638	5.2844
2.2559	5.1956
2.2481	5.2493
2.2403	5.2603
2.2326	5.1778
2.225	5.1753
2.2173	5.1485
2.2098	5.1701
2.2023	5.1623
2.1948	5.2509
2.1874	5.1891
2.18	5.2467
2.1727	5.2303
2.1655	5.2418
2.1583	5.2643
2.1511	5.2932
2.144	5.2446
2.1369	5.3524
2.1299	5.2772
2.1229	5.2976
2.116	5.2774
2.1091	5.313
2.1023	5.3334
2.0955	5.3662
2.0887	5.333
2.082	5.4018
2.06	5.4234
2.028	5.2246
1.996	5.1863
1.964	5.2134
1.932	5.2813
1.9	5.2992
1.868	5.2856
1.836	5.3348
1.804	5.3332
1.772	5.2543
1.74	5.2526
1.708	5.2583
1.676	5.357
1.644	5.3294
1.612	5.3304
1.58	5.2636
1.548	5.2095
1.516	5.1397
1.484	4.9229
1.452	5.1092
1.42	4.9656
1.388	4.9106
1.356	4.8877
1.324	5.0319
1.292	4.9169
1.26	5.0515
1.228	4.994
1.196	4.9757
1.164	4.977
1.132	4.8552
1.1	4.8245
1.068	4.9145
1.036	4.8959
1.004	4.9821
0.972	5.0375
0.94	5.1256
0.908	5.3094
0.876	5.3466
0.844	5.3359
0.812	5.381
0.795	5.393
0.787	5.4853
0.779	5.4018
0.771	5.5803
0.763	5.5489
0.755	5.491
0.747	5.3731
0.739	5.3303
0.731	5.4789
0.723	5.404
0.715	5.3581
0.707	5.3291
0.699	5.3723
0.691	5.071
0.683	5.3155
0.675	5.1555
0.667	5.2856
0.659	5.3566
0.651	5.2169
0.643	5.1504
0.635	5.1095
0.627	5.3043
0.619	5.1405
0.611	5.0985
0.603	5.3665
0.595	5.1736
0.587	5.1
0.579	5.142
0.571	5.0936
0.563	5.1029
0.555	5.2429
0.547	5.2278
0.539	5.1088
0.531	5.0636
0.523	5.1234
0.515	5.0763
0.507	5.2268
0.499	5.1864
0.491	5.2518
0.483	5.2899
0.475	5.3526
0.467	5.5154
0.459	5.5749
0.451	5.7584
0.443	5.6215
0.435	5.8924
0.427	5.9298
0.419	6.2607
0.411	6.5586
0.403	6.6235
