Name: Phlogopite KMg3Si3AlO10(F, OH)2
Type: Mineral
Class: Silicates
Subclass: Phyllosilicates (Sheet Silicates); (Mica Group)
Particle Size: Fine  (Less than 2  Micrometers)
Sample No.: phlogop.2
Owner: JHU
Wavelength Range: IR
Origin: Ontario, Canada via the Hunt and Salisbury Collection #23B
Description: This second sample of phlogopite also displayed the
Measurement: Transmission
X Units: Wavelength (micrometers)
Y Units: Transmittance (percent)
wavelength	value
25.0442	61.078
24.3388	56.4061
23.6719	51.6327
23.0407	43.955
22.4422	33.6874
21.8741	27.0116
21.334	24.8456
20.8199	34.3769
20.33	42.4179
19.8627	48.5917
19.4163	53.0858
18.9896	60.8407
18.5812	68.9862
18.19	75.0789
17.815	78.9148
17.4551	81.0486
17.1094	81.156
16.7772	80.6365
16.4576	80.199
16.15	80.4275
15.8537	80.449
15.568	80.1248
15.2925	79.5076
15.0265	79.741
14.7697	79.367
14.5214	77.5105
14.2814	79.5662
14.0492	80.3728
13.8244	80.2913
13.6067	81.1682
13.3957	83.3636
13.1912	84.242
12.9929	85.0764
12.8004	86.5525
12.6135	86.3635
12.432	83.1521
12.2557	79.9085
12.0843	84.5857
11.9176	86.282
11.7555	84.6565
11.5977	83.4168
11.444	81.615
11.2944	78.7303
11.1487	73.678
11.0067	68.723
10.8682	64.5784
10.7332	58.9872
10.6015	51.1293
10.473	39.4691
10.3476	28.4765
10.2251	24.3173
10.1056	21.2714
9.98873	17.1372
9.87458	18.2197
9.763	25.9164
9.65392	33.7021
9.54724	41.223
9.44291	47.4027
9.34082	51.4007
9.24091	55.1195
9.14312	60.203
9.04739	66.9793
8.95363	72.9686
8.8618	76.8191
8.77183	79.7664
8.68368	82.1336
8.59727	84.1565
8.51257	85.9422
8.42951	87.5432
8.34807	88.907
8.26819	89.9705
8.18981	90.7178
8.11292	91.3777
8.03745	91.865
7.96337	92.249
7.89064	92.6719
7.81924	93.0007
7.74911	93.1799
7.68023	93.3953
7.61256	93.6482
7.54608	93.8513
7.48074	93.9265
7.41653	94.0684
7.35341	94.1033
7.29136	94.1018
7.23034	94.3655
7.17033	94.0645
7.11132	93.946
7.05327	93.782
6.99616	93.7546
6.93996	93.8679
6.88467	94.0769
6.83024	94.249
6.77667	94.4168
6.72393	94.6133
6.67201	94.7844
6.62089	94.9539
6.57054	95.1299
6.52095	95.1738
6.4721	95.2363
6.42398	95.3591
6.37657	95.2764
6.32986	95.1931
6.28382	95.1179
6.23845	95.1016
6.19373	95.155
6.14965	94.623
6.10619	94.6729
6.06334	94.572
6.02109	94.2351
5.97942	94.4304
5.93832	94.957
5.89778	95.5469
5.8578	95.9023
5.81835	96.2307
5.77943	96.3494
5.74103	96.4612
5.70314	96.4978
5.66574	96.6045
5.62883	96.7158
5.5924	96.7393
5.55644	96.7881
5.52093	96.8601
5.48588	96.8562
5.45127	96.9119
5.41709	97.0225
5.38334	97.0266
5.35	97.1367
5.31708	97.2295
5.28456	97.335
5.25243	97.4258
5.2207	97.4443
5.18934	97.448
5.15836	97.5166
5.12775	97.5635
5.09749	97.6123
5.0676	97.5906
5.03805	97.5955
5.00884	97.655
4.97998	97.6912
4.95144	97.7439
4.92322	97.741
4.89533	97.7361
4.86775	97.7424
4.84048	97.7405
4.81351	97.8069
4.78684	97.8093
4.76047	97.7537
4.73439	97.7781
4.70859	97.7444
4.68306	97.7942
4.65782	97.8337
4.63284	97.8479
4.60814	97.8581
4.58369	97.8747
4.5595	97.907
4.53557	97.8586
4.51188	97.845
4.48845	97.8323
4.46525	97.7893
4.44229	97.8381
4.41957	97.8162
4.39708	97.8137
4.37481	97.8074
4.35277	97.8088
4.33096	97.8108
4.30935	97.762
4.28797	97.7917
4.26679	97.824
4.24583	97.7991
4.22506	97.8083
4.2045	97.8147
4.18414	97.7873
4.16398	97.7664
4.14401	97.7932
4.12423	97.864
4.10464	97.8508
4.08523	97.7751
4.066	97.7869
4.04696	97.8088
4.02809	97.8376
4.0094	97.8132
3.99088	97.7893
3.97253	97.7932
3.95435	97.822
3.93634	97.8181
3.91848	97.8445
3.90079	97.823
3.88326	97.8064
3.86589	97.7151
3.84867	97.6912
3.8316	97.6838
3.81468	97.719
3.79791	97.6716
3.78129	97.6199
3.76482	97.615
3.74848	97.532
3.73229	97.5085
3.71624	97.4275
3.70032	97.3401
3.68454	97.3445
3.6689	97.3337
3.65338	97.2815
3.638	97.2273
3.62275	97.154
3.60762	97.0769
3.59262	97.0354
3.57775	96.9763
3.56299	96.9294
3.54836	96.8933
3.53385	96.7888
3.51945	96.6975
3.50517	96.803
3.49101	96.6521
3.47696	96.5662
3.46303	96.4807
3.4492	96.4519
3.43549	96.4065
3.42188	96.4568
3.40838	96.2151
3.39499	96.0706
3.38171	96.031
3.36852	95.9529
3.35544	95.7991
3.34246	95.7112
3.32958	95.5779
3.3168	95.5139
3.30411	95.4373
3.29153	95.3635
3.27903	95.2092
3.26664	95.1912
3.25433	95.0432
3.24212	94.866
3.23	94.6389
3.21797	94.5056
3.20603	94.3967
3.19418	94.2659
3.18241	94.1428
3.17074	93.9841
3.15914	93.7576
3.14763	93.5896
3.13621	93.3699
3.12487	93.1853
3.11361	93.1375
3.10243	93.032
3.09133	92.8435
3.0803	92.655
3.06936	92.5515
3.0585	92.365
3.04771	92.1492
3.037	91.99
3.02636	91.9275
3.0158	91.8318
3.00531	91.6257
2.99489	91.8171
2.98454	92.0545
2.97427	92.2039
2.96407	92.6248
2.95393	92.9265
2.94387	93.2312
2.93387	93.322
2.92394	93.2693
2.91408	93.4695
2.90429	93.5369
2.89456	93.4539
2.88489	93.2166
2.87529	92.9353
2.86576	92.7029
2.85628	92.6414
2.84687	92.6541
2.83752	92.6306
2.82823	92.7029
2.81901	92.7654
2.80984	92.6423
2.80073	92.4607
2.79168	92.4666
2.78269	92.3865
2.77376	92.2742
2.76488	92.2947
2.75606	92.5359
2.7473	92.742
2.73859	92.8455
2.72994	92.8005
2.72134	92.9119
2.7128	92.9724
2.70431	93.0437
2.69587	92.6179
2.68748	94.1814
2.67915	96.1169
2.67087	96.4138
2.66264	96.2771
2.65446	96.3318
2.64633	96.4226
2.63825	96.4031
2.63021	96.364
2.62223	96.4578
2.6143	96.4763
2.60641	96.324
2.59857	96.3015
2.59078	96.3904
2.58304	96.5164
2.57534	96.4802
2.56768	96.2732
2.56008	96.1697
2.55251	96.2029
2.54499	96.156
2.53752	96.2556
2.53009	96.2087
2.5227	96.0251
2.51536	96.0564
2.50806	96.2244
2.5008	96.1267
2.49358	96.1716
2.4864	96.2107
2.47927	96.1189
2.47218	95.9919
2.46512	95.8259
2.45811	95.8982
2.45114	95.8748
2.4442	95.8455
2.43731	95.7927
2.43045	95.7751
2.42363	95.8064
2.41685	95.738
2.41011	95.8435
2.40341	95.8611
2.39674	95.7615
2.39011	95.7205
2.38352	95.613
2.37696	95.5642
2.37044	95.5037
2.36395	95.6794
2.35751	95.6267
2.35109	95.6033
2.34471	95.5701
2.33836	95.5232
2.33205	95.322
2.32578	95.4763
2.31953	95.6501
2.31332	95.5466
2.30714	95.6091
2.301	95.6404
2.29489	95.5583
2.28881	95.533
2.28276	95.6091
2.27675	95.6736
2.27076	95.4373
2.26481	95.572
2.25889	95.6521
2.253	95.8767
2.24714	95.6873
2.24131	95.5701
2.23551	95.5798
2.22974	95.697
2.224	95.6638
2.21829	95.5896
2.21261	95.9998
2.20696	95.7576
2.20134	95.8044
2.19574	95.7751
2.19018	95.9392
2.18464	95.8611
2.17913	95.6091
2.17365	95.8767
2.16819	95.9998
2.16277	96.1951
2.15737	96.3357
2.15199	95.8474
2.14665	95.7927
2.14133	96.1208
2.13603	95.8083
2.13077	96.0115
2.12552	96.2732
2.12031	96.156
2.11512	96.2537
2.10995	96.1833
2.10481	96.0076
2.0997	96.2732
2.09461	96.5193
2.08954	96.4529
2.0845	96.5037
2.07948	96.3357
