Name: Alunite (sodium alunite) NaAl3(SO4)2(OH)6
Type: Mineral
Class: Sulfates
Particle Size: Fine (0-15 Micrometers)
Sample No.: alunite.4
Owner: JHU
Wavelength Range: IR
Origin: Synthetic; Synthesized by Roger Stoffregen and supplied by
Description: The sample was a white, microcrystalline powder
Measurement: Bidirectional Reflectance
X Units: Wavelength (micrometers)
Y Units: Reflectance (percent)
wavelength	value
25.044	2.29
24.339	1.937
23.672	1.3999
23.041	1.1592
22.442	1.0093
21.874	1.2493
21.334	2.0173
20.82	2.2236
20.33	1.8896
19.863	2.1846
19.416	1.4832
18.99	1.2405
18.581	1.2268
18.19	1.9734
17.815	2.0056
17.455	1.675
17.109	1.3823
16.777	1.2686
16.458	1.167
16.15	0.9582
15.854	1.1863
15.568	1.1238
15.292	1.0715
15.027	0.8726
14.77	0.8687
14.521	0.9221
14.281	0.9414
14.049	1.0129
13.824	1.0264
13.607	1.0381
13.396	0.7468
13.191	0.4653
12.993	0.3572
12.8	0.5076
12.614	0.7927
12.432	1.1184
12.256	1.3787
12.084	1.7165
11.918	1.9778
11.755	2.219
11.598	2.3967
11.444	2.5156
11.294	2.5691
11.149	2.6306
11.007	2.7573
10.868	2.9565
10.733	3.1018
10.602	3.1638
10.473	3.3035
10.348	3.4289
10.225	3.4231
10.106	3.2578
9.989	3.0351
9.875	2.6091
9.763	1.5305
9.654	1.8235
9.547	2.0046
9.443	1.7476
9.341	1.2898
9.241	1.1152
9.143	1.3318
9.047	1.3896
8.954	1.3892
8.862	1.4382
8.772	1.4641
8.684	1.4233
8.597	1.2834
8.513	1.3394
8.43	1.1094
8.348	0.9182
8.268	0.8188
8.19	0.7978
8.113	0.8738
8.037	1.0117
7.963	1.158
7.891	1.1528
7.819	0.9934
7.749	0.8484
7.68	0.8247
7.613	0.9241
7.546	1.2241
7.481	1.5466
7.417	1.9265
7.353	2.2473
7.291	2.5054
7.23	2.6955
7.17	2.8735
7.111	3.0576
7.053	3.2395
6.996	3.3071
6.94	3.3467
6.885	3.4714
6.83	3.6428
6.777	3.7361
6.724	3.7068
6.672	3.5933
6.621	3.4248
6.571	3.4575
6.521	3.634
6.472	3.8572
6.424	4.0217
6.377	4.1308
6.33	4.1365
6.284	4.0874
6.238	4.0264
6.194	3.8984
6.15	3.6948
6.106	3.5393
6.063	3.4932
6.021	3.5356
5.979	3.6186
5.938	3.7395
5.898	4.0107
5.858	4.4197
5.818	4.737
5.779	5.0454
5.741	5.2651
5.703	5.4255
5.666	5.5759
5.629	5.7097
5.592	5.8389
5.556	5.9343
5.521	5.9993
5.486	6.093
5.451	6.26
5.417	6.4446
5.383	6.5771
5.35	6.6904
5.317	6.7991
5.285	6.8791
5.252	6.925
5.221	6.9751
5.189	7.0371
5.158	7.0852
5.128	7.1262
5.097	7.1711
5.068	7.2016
5.038	7.2319
5.009	7.2605
4.98	7.2646
4.951	7.2676
4.923	7.2356
4.895	7.1648
4.868	7.0498
4.84	6.9309
4.814	6.4805
4.787	6.7139
4.76	6.4758
4.734	5.5696
4.709	4.9807
4.683	4.0415
4.658	3.9426
4.633	4.0598
4.608	3.5552
4.584	3.6711
4.56	3.5359
4.536	3.408
4.512	3.3713
4.488	3.4072
4.465	3.4875
4.442	3.6323
4.42	3.7651
4.397	3.7925
4.375	4.001
4.353	4.0632
4.331	3.8271
4.309	3.9678
4.288	4.2143
4.267	4.6421
4.246	4.9551
4.225	5.1916
4.205	5.4057
4.184	5.4653
4.164	5.4617
4.144	5.436
4.124	5.4219
4.105	5.4099
4.085	5.4077
4.066	5.3923
4.047	5.3791
4.028	5.3613
4.009	5.3376
3.991	5.3349
3.973	5.3423
3.954	5.3511
3.936	5.3833
3.918	5.405
3.901	5.2895
3.883	5.4497
3.866	5.4717
3.849	5.4809
3.832	5.4819
3.815	5.477
3.798	5.4553
3.781	5.439
3.765	5.397
3.748	5.353
3.732	5.2871
3.716	5.2146
3.7	5.1345
3.685	5.0464
3.669	4.9495
3.653	4.8557
3.638	4.7515
3.623	4.6545
3.608	4.5383
3.593	4.4319
3.578	4.3293
3.563	4.2229
3.548	4.1084
3.534	4.0063
3.519	3.9043
3.505	3.8047
3.491	3.7161
3.477	3.6228
3.463	3.5329
3.449	3.4436
3.435	3.3547
3.422	3.28
3.408	3.1843
3.395	3.1142
3.382	3.0398
3.369	2.9905
3.355	2.9116
3.342	2.8523
3.33	2.7996
3.317	2.7661
3.304	2.7209
3.292	2.6648
3.279	2.6372
3.267	2.603
3.254	2.5686
3.242	2.5496
3.23	2.5268
3.218	2.4895
3.206	2.4744
3.194	2.4492
3.182	2.4224
3.171	2.3708
3.159	2.2744
3.148	2.3059
3.136	2.1894
3.125	2.0669
3.114	2.1016
3.102	2.1348
3.091	2.1438
3.08	2.186
3.069	2.2197
3.058	2.1641
3.048	2.0742
3.037	2.0063
3.026	1.9739
3.016	1.74
3.005	1.585
2.995	1.4934
2.985	1.3589
2.974	1.2156
2.964	1.1953
2.954	1.2253
2.944	1.0979
2.934	0.9853
2.924	0.8967
2.914	0.6599
2.904	0.5374
2.895	0.8086
2.885	0.6919
2.875	0.3577
2.866	0.499
2.856	0.4888
2.847	0.5828
2.838	0.759
2.828	0.9304
2.819	1.2519
2.81	1.5625
2.801	1.7207
2.792	2.0364
2.783	2.6514
2.774	3.1294
2.765	3.6147
2.756	4.3972
2.747	5.1445
2.739	5.8403
2.73	6.6467
2.721	7.2444
2.713	7.6699
2.704	8.2368
2.696	8.9453
2.687	9.3379
2.679	9.5158
2.671	10.4502
2.663	10.9389
2.654	10.9814
2.646	11.143
2.638	11.2295
2.63	11.0947
2.622	10.9463
2.614	10.9011
2.606	10.3398
2.599	9.8515
2.591	10.0796
2.583	10.1616
2.575	9.9702
2.568	9.9592
2.56	10.0029
2.553	9.957
2.545	9.8415
2.538	9.2099
2.53	8.4336
2.523	8.5185
2.515	9.4377
2.508	9.5952
2.501	9.5471
2.494	9.9038
2.486	9.7705
2.479	9.7593
2.472	9.9677
2.465	9.9887
2.458	9.8093
2.451	9.4682
2.444	9.5532
2.437	9.9814
2.43	10.6963
2.424	11.3003
2.417	11.3764
2.41	11.3242
2.403	11.3672
2.397	11.3943
2.39	11.6899
2.384	12.3139
2.377	12.854
2.37	13.1772
2.364	13.4196
2.358	13.466
2.351	13.3586
2.345	13.061
2.338	12.729
2.332	12.4065
2.326	12.2138
2.32	12.3916
2.313	12.999
2.307	13.6008
2.301	13.9438
2.295	14.1152
2.289	14.2339
2.283	14.3025
2.277	14.373
2.271	14.4526
2.265	14.4487
2.259	14.4712
2.253	14.3935
2.247	14.341
2.241	14.122
2.236	13.4946
2.23	13.2871
2.224	12.634
2.218	11.8567
2.213	12.6162
2.207	12.9133
2.201	12.3398
2.196	12.1001
2.19	11.4819
2.185	11.3847
2.179	11.1975
2.174	10.9826
2.168	11.0493
2.163	11.123
2.157	11.2502
2.152	11.5532
2.147	11.8774
2.141	12.1513
2.136	12.5813
2.131	12.9375
2.126	13.1457
2.12	13.3293
2.115	13.3713
2.11	13.4023
2.105	13.4145
2.1	13.4563
2.095	13.5166
2.09	13.6103
2.085	13.5937
2.079	13.6006
