Name: Olivine (Fo88) (Fe+2,Mg)2SiO4
Type: Mineral
Class: Silicates
Subclass: Nesosilicates (Isolated tetrahedra); (Olivine Group)
Particle Size: 0-30 micrometers.  (Packed powder simulates coarse.)
Sample No.: olivine.8
Owner: JHU
Wavelength Range: IR
Origin: Brenham, Kansas (location of meteorite fall) via Trude King
Description: Olivine obtained from the Brenham meteorite was
Measurement: Bidirectional reflectance
X Units: Wavelength (micrometers)
Y Units: Reflectance (percent)
wavelength	value
25.0442	18.665
24.3388	21.5644
23.6719	24.3183
23.0407	23.3046
22.4422	21.0937
21.8741	14.1425
21.334	14.5297
20.8199	12.01
20.33	13.811
19.8627	18.185
19.4163	19.1889
18.9896	22.4653
18.5812	21.7831
18.19	22.3234
17.815	19.342
17.4551	12.0288
17.1094	7.9077
16.7772	8.8489
16.4576	10.5515
16.15	11.5569
15.8537	10.2356
15.568	7.3562
15.2925	5.9995
15.0265	5.8415
14.7697	6.1633
14.5214	6.5034
14.2814	6.8586
14.0492	7.2427
13.8244	7.5552
13.6067	7.9272
13.3957	8.2319
13.1912	8.5564
12.9929	8.8418
12.8004	9.1223
12.6135	9.2978
12.432	9.4934
12.2557	9.6543
12.0843	9.9736
11.9176	10.3987
11.7555	10.1262
11.5977	11.1823
11.444	13.1098
11.2944	14.7089
11.1487	15.8996
11.0067	16.9487
10.8682	17.8649
10.7332	18.7363
10.6015	19.4531
10.473	19.8107
10.3476	14.8503
10.2251	15.1772
10.1056	16.8989
9.98873	15.8635
9.87458	16.3093
9.763	17.0532
9.65392	17.5725
9.54724	16.9321
9.44291	14.6135
9.34082	11.509
9.24091	8.1921
9.14312	5.949
9.04739	4.6897
8.95363	4.0456
8.8618	3.8682
8.77183	3.904
8.68368	4.0486
8.59727	4.1899
8.51257	4.551
8.42951	4.7458
8.34807	4.9939
8.26819	5.3552
8.18981	5.7776
8.11292	6.0737
8.03745	6.2431
7.96337	6.3909
7.89064	6.4848
7.81924	6.5427
7.74911	6.7143
7.68023	6.9409
7.61256	7.0393
7.54608	7.1589
7.48074	7.3442
7.41653	7.5312
7.35341	7.7063
7.29136	7.8213
7.23034	7.8576
7.17033	7.9807
7.11132	8.1052
7.05327	8.1465
6.99616	8.3232
6.93996	8.4692
6.88467	8.4983
6.83024	8.6333
6.77667	8.8999
6.72393	9.05
6.67201	9.1789
6.62089	9.3161
6.57054	9.3264
6.52095	9.3552
6.4721	9.4187
6.42398	9.4153
6.37657	9.3708
6.32986	9.2053
6.28382	9.123
6.23845	9.0422
6.19373	9.1452
6.14965	9.2287
6.10619	9.2304
6.06334	8.99
6.02109	8.435
5.97942	8.3742
5.93832	8.5578
5.89778	8.6562
5.8578	8.6809
5.81835	8.603
5.77943	8.5842
5.74103	8.654
5.70314	8.6333
5.66574	8.3464
5.62883	8.1596
5.5924	8.4131
5.55644	8.9077
5.52093	9.0676
5.48588	9.0832
5.45127	9.0862
5.41709	9.2229
5.38334	9.3523
5.35	9.4607
5.31708	9.5654
5.28456	9.6531
5.25243	9.6946
5.2207	9.7651
5.18934	9.9446
5.15836	10.104
5.12775	10.2524
5.09749	10.3591
5.0676	10.4262
5.03805	10.4497
5.00884	10.4101
4.97998	10.3325
4.95144	10.2624
4.92322	10.4948
4.89533	10.9377
4.86775	11.4409
4.84048	11.729
4.81351	11.8662
4.78684	11.9646
4.76047	12.0373
4.73439	12.0862
4.70859	12.1342
4.68306	12.1567
4.65782	12.1926
4.63284	12.24
4.60814	12.2734
4.58369	12.3139
4.5595	12.3447
4.53557	12.3659
4.51188	12.385
4.48845	12.3896
4.46525	12.404
4.44229	12.4406
4.41957	12.4851
4.39708	12.5092
4.37481	12.5312
4.35277	12.5615
4.33096	12.5808
4.30935	12.5879
4.28797	12.6128
4.26679	12.6391
4.24583	12.6616
4.22506	12.6899
4.2045	12.7194
4.18414	12.7219
4.16398	12.7434
4.14401	12.7707
4.12423	12.7629
4.10464	12.7839
4.08523	12.8027
4.066	12.8203
4.04696	12.8242
4.02809	12.8
4.0094	12.8076
3.99088	12.8274
3.97253	12.8208
3.95435	12.8232
3.93634	12.8269
3.91848	12.8278
3.90079	12.8173
3.88326	12.7942
3.86589	12.7632
3.84867	12.7668
3.8316	12.7549
3.81468	12.7368
3.79791	12.7234
3.78129	12.7107
3.76482	12.6965
3.74848	12.6916
3.73229	12.6696
3.71624	12.6347
3.70032	12.622
3.68454	12.6081
3.6689	12.5803
3.65338	12.571
3.638	12.5549
3.62275	12.5415
3.60762	12.519
3.59262	12.4782
3.57775	12.4372
3.56299	12.3884
3.54836	12.3152
3.53385	12.2046
3.51945	11.9428
3.50517	11.2666
3.49101	11.4504
3.47696	11.5517
3.46303	11.5549
3.4492	11.3393
3.43549	11.0185
3.42188	10.4465
3.40838	10.5254
3.39499	11.0007
3.38171	11.0036
3.36852	11.217
3.35544	11.5149
3.34246	11.636
3.32958	11.7085
3.3168	11.7448
3.30411	11.6389
3.29153	11.6972
3.27903	11.6653
3.26664	11.5683
3.25433	11.563
3.24212	11.5202
3.23	11.5171
3.21797	11.476
3.20603	11.4485
3.19418	11.4023
3.18241	11.3564
3.17074	11.2834
3.15914	11.249
3.14763	11.1889
3.13621	11.1499
3.12487	11.1162
3.11361	11.0793
3.10243	11.0344
3.09133	11.0012
3.0803	10.9719
3.06936	10.9131
3.0585	10.8999
3.04771	10.8537
3.037	10.8232
3.02636	10.7961
3.0158	10.7654
3.00531	10.7392
2.99489	10.7002
2.98454	10.6784
2.97427	10.6606
2.96407	10.6721
2.95393	10.6577
2.94387	10.636
2.93387	10.6621
2.92394	10.6567
2.91408	10.6352
2.90429	10.6633
2.89456	10.6858
2.88489	10.6941
2.87529	10.7173
2.86576	10.7412
2.85628	10.8037
2.84687	10.8701
2.83752	10.9511
2.82823	11.0288
2.81901	11.0947
2.80984	11.1963
2.80073	11.2929
2.79168	11.3686
2.78269	11.4692
2.77376	11.581
2.76488	11.7075
2.75606	11.8166
2.7473	11.9599
2.73859	12.0945
2.72994	12.2002
2.72134	12.3286
2.7128	12.3989
2.70431	12.4966
2.69587	12.5713
2.68748	12.6425
2.67915	12.7075
2.67087	12.7124
2.66264	12.6963
2.65446	12.6596
2.64633	12.6501
2.63825	12.6516
2.63021	12.6428
2.62223	12.634
2.6143	12.6262
2.60641	12.6318
2.59857	12.6208
2.59078	12.5781
2.58304	12.6059
2.57534	12.5659
2.56768	12.5393
2.56008	12.53
2.55251	12.4863
2.54499	12.4795
2.53752	12.467
2.53009	12.4507
2.5227	12.469
2.51536	12.4211
2.50806	12.4209
2.5008	12.3979
2.49358	12.3947
2.4864	12.3596
2.47927	12.3469
2.47218	12.3156
2.46512	12.3393
2.45811	12.2981
2.45114	12.3222
2.4442	12.3017
2.43731	12.2871
2.43045	12.2656
2.42363	12.2412
2.41685	12.2824
2.41011	12.301
2.40341	12.2815
2.39674	12.2563
2.39011	12.2812
2.38352	12.2133
2.37696	12.2109
2.37044	12.1779
2.36395	12.176
2.35751	12.2219
2.35109	12.1799
2.34471	12.1779
2.33836	12.1555
2.33205	12.1838
2.32578	12.1914
2.31953	12.1762
2.31332	12.1826
2.30714	12.1616
2.301	12.1611
2.29489	12.1738
2.28881	12.1738
2.28276	12.1718
2.27675	12.1992
2.27076	12.2138
2.26481	12.1787
2.25889	12.2192
2.253	12.1997
2.24714	12.2436
2.24131	12.2422
2.23551	12.2505
2.22974	12.2129
2.224	12.2314
2.21829	12.2285
2.21261	12.2119
2.20696	12.2505
2.20134	12.2285
2.19574	12.2417
2.19018	12.2666
2.18464	12.2695
2.17913	12.2798
2.17365	12.2666
2.16819	12.2881
2.16277	12.2861
2.15737	12.3003
2.15199	12.2744
2.14665	12.2563
2.14133	12.2788
2.13603	12.3091
2.13077	12.3164
2.12552	12.3833
2.12031	12.4023
2.11512	12.3637
2.10995	12.3838
2.10481	12.3925
2.0997	12.4121
2.09461	12.4653
2.08954	12.4531
2.0845	12.4536
2.07948	12.4492
