Name: Hedenbergite CaFe+2Si2O6
Type: Mineral
Class: Silicates
Subclass: Inosilicates (Single chain Pyroxene Group)
Particle Size: Solid
Sample No.: hedenber.1
Owner: JHU
Wavelength Range: IR
Origin: Eureka Mine, 2nd Level, Sub-level 1, 135 N, 645E, Ducktown,
Description: The sample was made up of three large pieces and three
Measurement: Bidirectional reflectance
X Units: Wavelength (micrometers)
Y Units: Reflectance (percent)
wavelength	value
25.0442	33.8954
24.3388	27.9516
23.6719	27.1747
23.0407	29.955
22.4422	32.8027
21.8741	39.3585
21.334	42.6366
20.8199	45.0704
20.33	45.1122
19.8627	47.7648
19.4163	45.1659
18.9896	41.9965
18.5812	45.3522
18.19	50.933
17.815	52.4388
17.4551	43.7079
17.1094	26.582
16.7772	13.7964
16.4576	12.4194
16.15	14.1831
15.8537	16.6899
15.568	15.4709
15.2925	11.6997
15.0265	14.1172
14.7697	13.6374
14.5214	12.8694
14.2814	13.2165
14.0492	13.75
13.8244	14.2339
13.6067	14.6621
13.3957	15.2212
13.1912	15.7458
12.9929	16.4011
12.8004	17.7133
12.6135	17.9692
12.432	18.1804
12.2557	17.4604
12.0843	18.5861
11.9176	20.9045
11.7555	27.0661
11.5977	33.8295
11.444	36.0238
11.2944	37.1415
11.1487	37.8715
11.0067	38.421
10.8682	39.1632
10.7332	34.3493
10.6015	35.7653
10.473	38.5197
10.3476	39.3388
10.2251	33.2524
10.1056	26.1801
9.98873	23.9172
9.87458	26.3139
9.763	26.1728
9.65392	25.7245
9.54724	26.673
9.44291	32.4006
9.34082	36.4738
9.24091	37.4272
9.14312	37.6095
9.04739	38.3537
8.95363	39.4357
8.8618	41.0785
8.77183	42.0739
8.68368	34.3925
8.59727	26.0305
8.51257	17.8813
8.42951	11.2368
8.34807	8.9531
8.26819	9.8027
8.18981	10.3672
8.11292	10.2265
8.03745	9.8159
7.96337	9.4856
7.89064	9.1921
7.81924	9.0854
7.74911	9.0232
7.68023	8.9255
7.61256	8.7585
7.54608	8.6391
7.48074	8.5595
7.41653	8.4978
7.35341	8.4875
7.29136	8.4944
7.23034	8.5259
7.17033	8.5825
7.11132	8.6894
7.05327	8.7273
6.99616	8.7549
6.93996	8.75
6.88467	8.7656
6.83024	8.8369
6.77667	8.8611
6.72393	8.8569
6.67201	8.8782
6.62089	8.9275
6.57054	8.9455
6.52095	8.9685
6.4721	9.0139
6.42398	9.0202
6.37657	9.091
6.32986	9.167
6.28382	9.2068
6.23845	9.2236
6.19373	9.2563
6.14965	9.2729
6.10619	9.2265
6.06334	9.2522
6.02109	9.2434
5.97942	9.2112
5.93832	9.1679
5.89778	9.1889
5.8578	9.2158
5.81835	9.1826
5.77943	9.3406
5.74103	9.5178
5.70314	9.5241
5.66574	9.5163
5.62883	9.5134
5.5924	9.5176
5.55644	9.5102
5.52093	9.5124
5.48588	9.5105
5.45127	9.498
5.41709	9.4809
5.38334	9.4748
5.35	9.4599
5.31708	9.4673
5.28456	9.4724
5.25243	9.4914
5.2207	9.501
5.18934	9.5256
5.15836	9.5315
5.12775	9.5388
5.09749	9.5227
5.0676	9.5097
5.03805	9.5141
5.00884	9.5205
4.97998	9.5205
4.95144	9.5232
4.92322	9.5251
4.89533	9.5305
4.86775	9.5461
4.84048	9.5666
4.81351	9.5813
4.78684	9.5962
4.76047	9.6181
4.73439	9.6362
4.70859	9.6823
4.68306	9.7263
4.65782	9.761
4.63284	9.8176
4.60814	9.8672
4.58369	9.9328
4.5595	9.9836
4.53557	10.0356
4.51188	10.091
4.48845	10.1257
4.46525	10.1557
4.44229	10.1823
4.41957	10.1938
4.39708	10.2119
4.37481	10.2412
4.35277	10.251
4.33096	10.2624
4.30935	10.2934
4.28797	10.3113
4.26679	10.3379
4.24583	10.3545
4.22506	10.3659
4.2045	10.3747
4.18414	10.4135
4.16398	10.4194
4.14401	10.4192
4.12423	10.4253
4.10464	10.4497
4.08523	10.4619
4.066	10.4592
4.04696	10.4626
4.02809	10.479
4.0094	10.4775
3.99088	10.469
3.97253	10.459
3.95435	10.4807
3.93634	10.5034
3.91848	10.5451
3.90079	10.5449
3.88326	10.5559
3.86589	10.5376
3.84867	10.5593
3.8316	10.5676
3.81468	10.5747
3.79791	10.5798
3.78129	10.5935
3.76482	10.605
3.74848	10.6174
3.73229	10.604
3.71624	10.6086
3.70032	10.6169
3.68454	10.6111
3.6689	10.6072
3.65338	10.6218
3.638	10.6081
3.62275	10.594
3.60762	10.5981
3.59262	10.6125
3.57775	10.5927
3.56299	10.6008
3.54836	10.5676
3.53385	10.55
3.51945	10.5429
3.50517	10.5403
3.49101	10.5576
3.47696	10.5564
3.46303	10.5593
3.4492	10.5686
3.43549	10.5622
3.42188	10.5844
3.40838	10.5896
3.39499	10.5908
3.38171	10.5832
3.36852	10.6223
3.35544	10.5849
3.34246	10.5547
3.32958	10.5227
3.3168	10.4968
3.30411	10.49
3.29153	10.4887
3.27903	10.4477
3.26664	10.4114
3.25433	10.3926
3.24212	10.3742
3.23	10.332
3.21797	10.3266
3.20603	10.3039
3.19418	10.2737
3.18241	10.2602
3.17074	10.228
3.15914	10.2041
3.14763	10.1865
3.13621	10.1386
3.12487	10.1213
3.11361	10.0898
3.10243	10.0952
3.09133	10.0508
3.0803	10.03
3.06936	10.0105
3.0585	9.9834
3.04771	9.9724
3.037	9.9614
3.02636	9.9543
3.0158	9.9043
3.00531	9.8686
2.99489	9.8637
2.98454	9.8489
2.97427	9.8303
2.96407	9.8081
2.95393	9.8257
2.94387	9.8359
2.93387	9.8388
2.92394	9.8261
2.91408	9.7937
2.90429	9.7822
2.89456	9.77
2.88489	9.7739
2.87529	9.7885
2.86576	9.834
2.85628	9.8569
2.84687	9.8716
2.83752	9.8733
2.82823	9.8567
2.81901	9.8965
2.80984	9.9282
2.80073	9.9521
2.79168	9.998
2.78269	10.0097
2.77376	10.0063
2.76488	10.0063
2.75606	9.9868
2.7473	10.0132
2.73859	10.0771
2.72994	10.0625
2.72134	10.0844
2.7128	10.3569
2.70431	10.3991
2.69587	10.4089
2.68748	10.4001
2.67915	10.4521
2.67087	10.4153
2.66264	10.4465
2.65446	10.4267
2.64633	10.3833
2.63825	10.3938
2.63021	10.385
2.62223	10.3794
2.6143	10.3701
2.60641	10.3567
2.59857	10.3569
2.59078	10.3508
2.58304	10.3359
2.57534	10.3413
2.56768	10.3081
2.56008	10.3135
2.55251	10.2824
2.54499	10.2932
2.53752	10.301
2.53009	10.2485
2.5227	10.2602
2.51536	10.247
2.50806	10.2553
2.5008	10.2229
2.49358	10.23
2.4864	10.2102
2.47927	10.2031
2.47218	10.178
2.46512	10.177
2.45811	10.219
2.45114	10.1838
2.4442	10.1701
2.43731	10.126
2.43045	10.1604
2.42363	10.1133
2.41685	10.1506
2.41011	10.1548
2.40341	10.136
2.39674	10.1299
2.39011	10.1318
2.38352	10.1281
2.37696	10.1252
2.37044	10.1406
2.36395	10.1465
2.35751	10.1389
2.35109	10.1484
2.34471	10.1653
2.33836	10.1582
2.33205	10.1245
2.32578	10.124
2.31953	10.1538
2.31332	10.1176
2.30714	10.1513
2.301	10.1299
2.29489	10.1748
2.28881	10.1816
2.28276	10.1606
2.27675	10.1797
2.27076	10.1704
2.26481	10.209
2.25889	10.1728
2.253	10.2163
2.24714	10.2085
2.24131	10.1992
2.23551	10.2016
2.22974	10.2002
2.224	10.2295
2.21829	10.2441
2.21261	10.2461
2.20696	10.1714
2.20134	10.2632
2.19574	10.2168
2.19018	10.2646
2.18464	10.2656
2.17913	10.2373
2.17365	10.2217
2.16819	10.2939
2.16277	10.311
2.15737	10.3418
2.15199	10.27
2.14665	10.2368
2.14133	10.2412
2.13603	10.248
2.13077	10.2446
2.12552	10.2426
2.12031	10.2783
2.11512	10.2817
2.10995	10.2744
2.10481	10.29
2.0997	10.2773
2.09461	10.3291
2.08954	10.3091
2.0845	10.3349
2.07948	10.2505
