Name: Karoonda1
Type: Stony Meteorites
Class: Carbonaceous Chondrite
Subclass: C4 (CV/CO)
Particle Size: 0-75 micrometers
Sample No.: Karoonda1
Owner: JHU
Origin: Meteorite seen to fall in Australia in 1930.  Smithsonian sample No.
Description: None.
Measurement: Bidirectional reflectance
X Units: Wavelength (micrometers)
Y Units: Reflectance (percent)
wavelength	value
25.044	0.8116
24.339	0.7921
23.672	0.6409
23.041	0.4795
22.442	0.4421
21.874	0.4666
21.334	0.479
20.82	0.5494
20.33	0.6156
19.863	0.6237
19.416	0.6858
18.99	0.6941
18.581	0.6978
18.19	0.6377
17.815	0.5767
17.455	0.5588
17.109	0.5216
16.777	0.5116
16.458	0.5372
16.15	0.558
15.854	0.5624
15.568	0.5593
15.292	0.6149
15.027	0.6787
14.77	0.7545
14.521	0.8661
14.281	0.9746
14.049	1.0695
13.824	1.1284
13.607	1.2043
13.396	1.2638
13.191	1.2974
12.993	1.3306
12.8	1.3321
12.614	1.2955
12.432	1.2122
12.256	1.056
12.084	0.8347
11.918	0.6591
11.755	0.7444
11.598	0.8346
11.444	0.9967
11.294	1.0907
11.149	1.097
11.007	1.0985
10.868	1.1239
10.733	1.1289
10.602	0.9833
10.473	0.8069
10.348	0.7791
10.225	0.796
10.106	0.7427
9.9887	0.7522
9.8746	0.7937
9.763	0.8392
9.6539	0.8622
9.5472	0.8591
9.4429	0.8046
9.3408	0.6769
9.2409	0.5747
9.1431	0.5443
9.0474	0.5751
8.9536	0.6274
8.8618	0.6764
8.7718	0.7213
8.6837	0.7653
8.5973	0.8287
8.5126	0.9081
8.4295	1.0115
8.3481	1.1326
8.2682	1.2465
8.1898	1.3317
8.1129	1.406
8.0374	1.4734
7.9634	1.5306
7.8906	1.5786
7.8192	1.6245
7.7491	1.6623
7.6802	1.6844
7.6126	1.7023
7.5461	1.7355
7.4807	1.7748
7.4165	1.8072
7.3534	1.834
7.2914	1.8538
7.2303	1.873
7.1703	1.8868
7.1113	1.9039
7.0533	1.9254
6.9962	1.952
6.94	1.9641
6.8847	1.9662
6.8302	1.9744
6.7767	1.9891
6.7239	1.9985
6.672	1.9993
6.6209	1.9966
6.5705	1.9949
6.5209	1.9941
6.4721	1.9874
6.424	1.9791
6.3766	1.9799
6.3299	1.9744
6.2838	1.9689
6.2385	1.9631
6.1937	1.9529
6.1496	1.9357
6.1062	1.9033
6.0633	1.8459
6.0211	1.8269
5.9794	1.8466
5.9383	1.8652
5.8978	1.8773
5.8578	1.8933
5.8184	1.9054
5.7794	1.9059
5.741	1.879
5.7031	1.8317
5.6657	1.8037
5.6288	1.8229
5.5924	1.8581
5.5564	1.8766
5.5209	1.8805
5.4859	1.8849
5.4513	1.8956
5.4171	1.9121
5.3833	1.926
5.35	1.9362
5.3171	1.9379
5.2846	1.9441
5.2524	1.9523
5.2207	1.9631
5.1893	1.9772
5.1584	1.9851
5.1277	1.9927
5.0975	1.9945
5.0676	1.9934
5.038	1.9934
5.0088	1.9945
4.98	2.0032
4.9514	2.0144
4.9232	2.031
4.8953	2.0435
4.8678	2.0483
4.8405	2.0531
4.8135	2.0542
4.7868	2.055
4.7605	2.0569
4.7344	2.056
4.7086	2.056
4.6831	2.0576
4.6578	2.0605
4.6328	2.0609
4.6081	2.0669
4.5837	2.0644
4.5595	2.0675
4.5356	2.068
4.5119	2.0669
4.4884	2.066
4.4652	2.0671
4.4423	2.0648
4.4196	2.0665
4.3971	2.0643
4.3748	2.0625
4.3528	2.0554
4.331	2.0432
4.3094	2.01
4.288	1.9702
4.2668	1.9503
4.2458	1.9645
4.2251	1.991
4.2045	2.0328
4.1841	2.0432
4.164	2.0475
4.144	2.0463
4.1242	2.0422
4.1046	2.04
4.0852	2.0377
4.066	2.0406
4.047	2.038
4.0281	2.0388
4.0094	2.0336
3.9909	2.0326
3.9725	2.0328
3.9544	2.0292
3.9363	2.0277
3.9185	2.0242
3.9008	2.0218
3.8833	2.0189
3.8659	2.0185
3.8487	2.0131
3.8316	2.0099
3.8147	2.0084
3.7979	2.004
3.7813	2.0026
3.7648	1.9994
3.7485	1.9933
3.7323	1.991
3.7162	1.984
3.7003	1.9805
3.6845	1.9773
3.6689	1.9763
3.6534	1.9706
3.638	1.9689
3.6227	1.9673
3.6076	1.9645
3.5926	1.9612
3.5777	1.956
3.563	1.9531
3.5484	1.9477
3.5338	1.9429
3.5195	1.937
3.5052	1.9282
3.491	1.9228
3.477	1.9205
3.463	1.916
3.4492	1.9105
3.4355	1.8987
3.4219	1.8852
3.4084	1.8828
3.395	1.887
3.3817	1.8815
3.3685	1.8809
3.3554	1.8783
3.3425	1.8738
3.3296	1.869
3.3168	1.869
3.3041	1.8613
3.2915	1.8552
3.279	1.8511
3.2666	1.8453
3.2543	1.8415
3.2421	1.8332
3.23	1.8281
3.218	1.8278
3.206	1.8201
3.1942	1.8138
3.1824	1.8068
3.1707	1.8027
3.1591	1.7969
3.1476	1.7909
3.1362	1.7836
3.1249	1.7792
3.1136	1.7684
3.1024	1.7638
3.0913	1.7623
3.0803	1.7527
3.0694	1.7467
3.0585	1.7419
3.0477	1.7389
3.037	1.731
3.0264	1.7263
3.0158	1.7192
3.0053	1.7141
2.9949	1.7089
2.9845	1.7035
2.9743	1.6943
2.9641	1.6913
2.9539	1.683
2.9439	1.679
2.9339	1.6717
2.9239	1.665
2.9141	1.6597
2.9043	1.6548
2.8946	1.6509
2.8849	1.6471
2.8753	1.6449
2.8658	1.6392
2.8563	1.6374
2.8469	1.6301
2.8375	1.6289
2.8282	1.6237
2.819	1.6221
2.8098	1.6201
2.8007	1.6201
2.7917	1.6224
2.7827	1.6212
2.7738	1.625
2.7649	1.628
2.7561	1.6202
2.7473	1.625
2.7386	1.624
2.7299	1.6273
2.7213	1.6317
2.7128	1.6244
2.7043	1.6226
2.6959	1.6241
2.6875	1.6241
2.6791	1.6183
2.6709	1.6103
2.6626	1.6145
2.6545	1.6091
2.6463	1.6045
2.6382	1.6012
2.6302	1.592
2.6222	1.5889
2.6143	1.58
2.6064	1.5748
2.5986	1.5706
2.5908	1.5685
2.583	1.5644
2.5753	1.5605
2.5677	1.5522
2.5601	1.552
2.5525	1.5386
2.545	1.5398
2.5375	1.531
2.5301	1.5326
2.5227	1.5273
2.5154	1.5184
2.5081	1.5151
2.5008	1.5088
2.4936	1.5038
2.4864	1.5073
2.4793	1.5021
2.4722	1.4944
2.4651	1.4889
2.4581	1.4873
2.4511	1.4797
2.4442	1.4718
2.4373	1.4711
2.4305	1.463
2.4236	1.4623
2.4169	1.4579
2.4101	1.4563
2.4034	1.4467
2.3967	1.4414
2.3901	1.4469
2.3835	1.4327
2.377	1.4338
2.3704	1.4244
2.364	1.42
2.3575	1.4209
2.3511	1.4226
2.3447	1.422
2.3384	1.4133
2.3321	1.4189
2.3258	1.4161
2.3195	1.4191
2.3133	1.4021
2.3071	1.4064
2.301	1.4071
2.2949	1.4
2.2888	1.4031
2.2828	1.4043
2.2767	1.3938
2.2708	1.3932
2.2648	1.3873
2.2589	1.3905
2.253	1.391
2.2471	1.3831
2.2413	1.3882
2.2355	1.3795
2.2297	1.3831
2.224	1.3802
2.2183	1.381
2.2126	1.3776
2.207	1.3771
2.2013	1.3873
2.1957	1.3942
2.1902	1.3813
2.1846	1.3918
2.1791	1.3829
2.1736	1.3846
2.1682	1.3849
2.1628	1.3776
2.1574	1.3905
2.152	1.3874
2.1466	1.3901
2.1413	1.3909
2.136	1.381
2.1308	1.382
2.1255	1.3845
2.1203	1.3815
2.1151	1.3887
2.11	1.3823
2.1048	1.3938
2.0997	1.3894
2.0946	1.3957
2.0895	1.39
2.0845	1.3932
2.0795	1.3992
