Name: Dolomite CaMg(CO3)2
Type: Mineral
Class: Carbonates
Particle Size: Solid (cleavage face)
Sample No.: dolomite.1
Owner: JHU
Wavelength Range: IR
Origin: Sample from Oberdorf, Styria, Austria via the Smithsonian
Description: The sample was a single white crystal, 3 cm x 2 cm x 2
Measurement: Bidirectional reflectance
X Units: Wavelength (micrometers)
Y Units: Reflectance (percent)
wavelength	value
25.0442	62.9334
24.3388	61.1912
23.6719	56.7303
23.0407	49.7626
22.4422	40.6132
21.8741	30.1698
21.334	19.1992
20.8199	10.2011
20.33	6.6855
19.8627	5.8125
19.4163	5.9477
18.9896	6.4067
18.5812	7.2344
18.19	7.79
17.815	8.3271
17.4551	8.8594
17.1094	9.311
16.7772	9.665
16.4576	10.0244
16.15	10.3711
15.8537	10.6865
15.568	10.9629
15.2925	11.205
15.0265	11.4414
14.7697	11.623
14.5214	11.8291
14.2814	12.0908
14.0492	12.4956
13.8244	13.56
13.6067	10.0442
13.3957	11.4218
13.1912	11.9443
12.9929	12.2356
12.8004	12.5097
12.6135	12.7588
12.432	12.9914
12.2557	13.2636
12.0843	13.6582
11.9176	14.0263
11.7555	14.8359
11.5977	15.5908
11.444	17.9824
11.2944	34.1203
11.1487	39.4091
11.0067	20.3896
10.8682	11.2453
10.7332	10.8655
10.6015	11.3791
10.473	11.7395
10.3476	12.0039
10.2251	12.2202
10.1056	12.3559
9.98873	12.5031
9.87458	12.6201
9.763	12.7549
9.65392	12.8325
9.54724	13.0293
9.44291	13.1298
9.34082	13.2512
9.24091	13.3674
9.14312	13.5014
9.04739	13.6211
8.95363	13.8725
8.8618	13.8767
8.77183	13.9194
8.68368	14.0493
8.59727	14.187
8.51257	14.3227
8.42951	14.4458
8.34807	14.5566
8.26819	14.7177
8.18981	14.9184
8.11292	15.0603
8.03745	15.2275
7.96337	15.435
7.89064	15.7104
7.81924	16.0393
7.74911	16.3696
7.68023	16.6855
7.61256	17.0717
7.54608	17.5234
7.48074	18.0517
7.41653	18.6684
7.35341	19.4843
7.29136	20.4619
7.23034	21.7939
7.17033	23.7216
7.11132	27.3852
7.05327	32.5434
6.99616	42.7426
6.93996	44.496
6.88467	45.6229
6.83024	47.1703
6.77667	48.3573
6.72393	49.6893
6.67201	52.0956
6.62089	59.7953
6.57054	67.1927
6.52095	72.7108
6.4721	74.5936
6.42398	73.2483
6.37657	69.3509
6.32986	51.1976
6.28382	40.975
6.23845	34.2265
6.19373	30.0986
6.14965	24.7797
6.10619	17.5742
6.06334	10.1955
6.02109	4.3017
5.97942	4.5957
5.93832	5.2234
5.89778	5.7407
5.8578	6.1948
5.81835	6.5122
5.77943	6.8764
5.74103	7.2671
5.70314	7.541
5.66574	7.7871
5.62883	7.9819
5.5924	8.1733
5.55644	8.4116
5.52093	8.5317
5.48588	8.3481
5.45127	8.2798
5.41709	8.501
5.38334	8.6762
5.35	8.8052
5.31708	8.9411
5.28456	9.0283
5.25243	9.1343
5.2207	9.2346
5.18934	9.3227
5.15836	9.428
5.12775	9.5034
5.09749	9.562
5.0676	9.5791
5.03805	9.677
5.00884	9.7744
4.97998	9.8083
4.95144	9.8576
4.92322	9.9148
4.89533	9.9499
4.86775	9.9995
4.84048	10.0364
4.81351	10.0661
4.78684	10.1196
4.76047	10.124
4.73439	10.1782
4.70859	10.1789
4.68306	10.1609
4.65782	10.1364
4.63284	10.1701
4.60814	10.1941
4.58369	10.2329
4.5595	10.2705
4.53557	10.31
4.51188	10.3501
4.48845	10.4331
4.46525	10.424
4.44229	10.4006
4.41957	10.4292
4.39708	10.4924
4.37481	10.5561
4.35277	10.6079
4.33096	10.5637
4.30935	10.5454
4.28797	10.5566
4.26679	10.5859
4.24583	10.6328
4.22506	10.6411
4.2045	10.6816
4.18414	10.7099
4.16398	10.7326
4.14401	10.7153
4.12423	10.7356
4.10464	10.7453
4.08523	10.7756
4.066	10.759
4.04696	10.7622
4.02809	10.7922
4.0094	10.8081
3.99088	10.8449
3.97253	10.8987
3.95435	10.7588
3.93634	10.687
3.91848	10.6487
3.90079	10.6211
3.88326	10.6592
3.86589	10.6592
3.84867	10.6594
3.8316	10.7221
3.81468	10.7441
3.79791	10.7182
3.78129	10.7246
3.76482	10.7304
3.74848	10.7822
3.73229	10.8359
3.71624	10.8916
3.70032	10.9306
3.68454	10.9804
3.6689	11.0031
3.65338	11.0107
3.638	11.039
3.62275	11.0566
3.60762	11.0561
3.59262	11.0539
3.57775	11.0542
3.56299	11.0197
3.54836	10.9424
3.53385	10.9553
3.51945	10.9126
3.50517	10.9116
3.49101	10.9582
3.47696	10.959
3.46303	10.9358
3.4492	10.8906
3.43549	10.8537
3.42188	10.9045
3.40838	10.9709
3.39499	10.9902
3.38171	11.0041
3.36852	11.0937
3.35544	11.0608
3.34246	11.0302
3.32958	11.018
3.3168	11.0034
3.30411	10.9223
3.29153	10.9272
3.27903	10.9497
3.26664	10.9751
3.25433	10.9892
3.24212	11.0239
3.23	11.0483
3.21797	11.0649
3.20603	11.0947
3.19418	11.1157
3.18241	11.1528
3.17074	11.1855
3.15914	11.205
3.14763	11.2021
3.13621	11.1899
3.12487	11.1855
3.11361	11.2207
3.10243	11.2168
3.09133	11.2197
3.0803	11.2251
3.06936	11.2353
3.0585	11.2558
3.04771	11.2627
3.037	11.2759
3.02636	11.2998
3.0158	11.2978
3.00531	11.3213
2.99489	11.3496
2.98454	11.3554
2.97427	11.3579
2.96407	11.3989
2.95393	11.415
2.94387	11.4218
2.93387	11.4394
2.92394	11.4287
2.91408	11.4438
2.90429	11.4785
2.89456	11.4853
2.88489	11.5068
2.87529	11.5122
2.86576	11.5644
2.85628	11.6152
2.84687	11.623
2.83752	11.6587
2.82823	11.6552
2.81901	11.664
2.80984	11.6977
2.80073	11.6801
2.79168	11.6552
2.78269	11.6308
2.77376	11.5957
2.76488	11.5942
2.75606	11.6255
2.7473	11.7114
2.73859	11.7739
2.72994	11.8852
2.72134	11.9101
2.7128	11.9609
2.70431	12.0371
2.69587	12.0215
2.68748	12.0517
2.67915	12.1211
2.67087	12.1015
2.66264	12.1845
2.65446	12.2041
2.64633	12.1982
2.63825	12.2207
2.63021	12.2109
2.62223	12.2119
2.6143	12.2549
2.60641	12.2168
2.59857	12.2353
2.59078	12.2588
2.58304	12.2392
2.57534	12.2275
2.56768	12.1963
2.56008	12.1963
2.55251	12.2041
2.54499	12.0976
2.53752	11.9736
2.53009	11.8447
2.5227	11.8525
2.51536	11.8203
2.50806	11.8369
2.5008	11.9277
2.49358	11.9316
2.4864	11.9658
2.47927	12.0244
2.47218	12.0634
2.46512	12.0644
2.45811	12.1025
2.45114	12.1445
2.4442	12.1963
2.43731	12.2539
2.43045	12.3408
2.42363	12.3955
2.41685	12.4384
2.41011	12.5156
2.40341	12.5009
2.39674	12.5175
2.39011	12.5586
2.38352	12.6103
2.37696	12.6289
2.37044	12.6523
2.36395	12.665
2.35751	12.7158
2.35109	12.6494
2.34471	12.6416
2.33836	12.5478
2.33205	12.4697
2.32578	12.4619
2.31953	12.457
2.31332	12.4961
2.30714	12.5664
2.301	12.6015
2.29489	12.6113
2.28881	12.7109
2.28276	12.7031
2.27675	12.7168
2.27076	12.7343
2.26481	12.8105
2.25889	12.875
2.253	12.9218
2.24714	12.9375
2.24131	12.9785
2.23551	13.0625
2.22974	13.1054
2.224	13.1211
2.21829	13.1914
2.21261	13.1757
2.20696	13.1679
2.20134	13.2422
2.19574	13.2519
2.19018	13.3086
2.18464	13.3203
2.17913	13.3164
2.17365	13.2812
2.16819	13.3125
2.16277	13.3925
2.15737	13.3632
2.15199	13.3828
2.14665	13.3632
2.14133	13.3711
2.13603	13.4472
2.13077	13.3828
2.12552	13.4238
2.12031	13.4531
2.11512	13.5117
2.10995	13.5507
2.10481	13.5039
2.0997	13.5097
2.09461	13.5625
2.08954	13.541
2.0845	13.5507
2.07948	13.5722
