Name: Warrenton
Type: Stony Meteorites
Class: Carbonaceous Chondrite
Subclass: CO
Particle Size: 0-75 micrometers
Sample No.: Warrenton
Owner: JHU
Origin: Meteorite seen to fall in Missouri in 1877.  Smithsonian sample No.
Description: None.
Measurement: Bidirectional reflectance
X Units: Wavelength (micrometers)
Y Units: Reflectance (percent)
wavelength	value
25.044	0.5483
24.339	0.7471
23.672	0.6526
23.041	0.5835
22.442	0.613
21.874	0.6643
21.334	0.6716
20.82	0.7122
20.33	0.678
19.863	0.7334
19.416	0.769
18.99	0.7893
18.581	0.7698
18.19	0.7092
17.815	0.5923
17.455	0.5771
17.109	0.5596
16.777	0.53
16.458	0.5124
16.15	0.5195
15.854	0.5193
15.568	0.5264
15.292	0.5447
15.027	0.5952
14.77	0.646
14.521	0.7087
14.281	0.7795
14.049	0.8408
13.824	0.8936
13.607	0.9521
13.396	1.1042
13.191	1.229
12.993	1.3061
12.8	1.3269
12.614	1.2993
12.432	1.2302
12.256	1.0466
12.084	0.8164
11.918	0.6892
11.755	0.7471
11.598	0.7747
11.444	0.8186
11.294	0.8235
11.149	0.8184
11.007	0.8198
10.868	0.8538
10.733	0.8711
10.602	0.8118
10.473	0.7639
10.348	0.7544
10.225	0.7166
10.106	0.6418
9.989	0.6301
9.875	0.6533
9.763	0.6582
9.654	0.708
9.547	0.8027
9.443	0.8411
9.341	0.8115
9.241	0.76
9.143	0.7732
9.047	0.833
8.954	0.8943
8.862	0.9827
8.772	1.0305
8.684	1.0771
8.597	1.1763
8.513	1.241
8.43	1.3169
8.348	1.3957
8.268	1.4853
8.19	1.5652
8.113	1.6484
8.037	1.7165
7.963	1.7676
7.891	1.8105
7.819	1.8418
7.749	1.8796
7.68	1.8953
7.613	1.9209
7.546	1.9497
7.481	1.9866
7.417	2.0217
7.353	2.051
7.291	2.0825
7.23	2.1143
7.17	2.1433
7.111	2.1821
7.053	2.2307
6.996	2.2761
6.94	2.3044
6.885	2.3179
6.83	2.3389
6.777	2.3691
6.724	2.3852
6.672	2.3784
6.621	2.3743
6.571	2.3782
6.521	2.3647
6.472	2.3352
6.424	2.2978
6.377	2.2654
6.33	2.2246
6.284	2.2009
6.239	2.2051
6.194	2.2156
6.15	2.2378
6.106	2.2253
6.063	2.1653
6.021	2.1619
5.979	2.2158
5.938	2.2744
5.898	2.3152
5.858	2.3601
5.818	2.3818
5.779	2.3843
5.741	2.3408
5.703	2.2788
5.666	2.2651
5.629	2.3086
5.592	2.3711
5.556	2.4014
5.521	2.4145
5.486	2.4206
5.451	2.4458
5.417	2.4726
5.383	2.5027
5.35	2.5151
5.317	2.5347
5.285	2.5432
5.252	2.5566
5.221	2.5701
5.189	2.5718
5.158	2.5735
5.128	2.5715
5.098	2.5847
5.068	2.5884
5.038	2.6096
5.009	2.6201
4.98	2.6511
4.951	2.6726
4.923	2.6938
4.895	2.7163
4.868	2.729
4.84	2.7427
4.814	2.7556
4.787	2.7683
4.761	2.7778
4.734	2.7861
4.709	2.8015
4.683	2.8137
4.658	2.8257
4.633	2.8345
4.608	2.852
4.584	2.8662
4.559	2.8774
4.536	2.886
4.512	2.8933
4.488	2.8979
4.465	2.9031
4.442	2.9128
4.42	2.9163
4.397	2.9172
4.375	2.9253
4.353	2.9241
4.331	2.9202
4.309	2.9175
4.288	2.9243
4.267	2.928
4.246	2.9255
4.225	2.9299
4.205	2.9358
4.184	2.9368
4.164	2.9368
4.144	2.9377
4.124	2.9404
4.105	2.9448
4.085	2.9468
4.066	2.9546
4.047	2.9604
4.028	2.9536
4.009	2.9568
3.991	2.9614
3.973	2.9578
3.954	2.9575
3.936	2.9619
3.918	2.9622
3.901	2.9636
3.883	2.9643
3.866	2.9578
3.849	2.9546
3.832	2.9487
3.815	2.9448
3.798	2.9382
3.781	2.9382
3.765	2.9397
3.748	2.937
3.732	2.9331
3.716	2.9277
3.7	2.9202
3.684	2.9094
3.669	2.9004
3.653	2.8994
3.638	2.8955
3.623	2.8955
3.608	2.8948
3.593	2.8865
3.578	2.8765
3.563	2.8735
3.548	2.8608
3.534	2.8511
3.519	2.8352
3.505	2.8081
3.491	2.8032
3.477	2.8071
3.463	2.8064
3.449	2.791
3.436	2.7659
3.422	2.7336
3.408	2.7317
3.395	2.7405
3.382	2.7341
3.369	2.7353
3.355	2.7361
3.342	2.7388
3.33	2.7334
3.317	2.7261
3.304	2.7129
3.292	2.7048
3.279	2.6934
3.267	2.6853
3.254	2.6728
3.242	2.6641
3.23	2.655
3.218	2.6421
3.206	2.6396
3.194	2.6226
3.182	2.6123
3.171	2.6045
3.159	2.5989
3.148	2.5845
3.136	2.5735
3.125	2.561
3.114	2.5471
3.102	2.5437
3.091	2.54
3.08	2.53
3.069	2.5205
3.059	2.5117
3.048	2.5081
3.037	2.5034
3.026	2.4936
3.016	2.4875
3.005	2.4761
2.995	2.4709
2.985	2.459
2.974	2.4624
2.964	2.4548
2.954	2.4477
2.944	2.4509
2.934	2.4463
2.924	2.4438
2.914	2.4429
2.904	2.4473
2.895	2.4519
2.885	2.453
2.456	2.8753
2.452	2.8658
2.46	2.8563
2.469	2.8469
2.474	2.8375
2.487	2.8282
2.498	2.819
2.509	2.8098
2.525	2.8007
2.528	2.7917
2.546	2.7827
2.568	2.7738
2.579	2.7649
2.588	2.7561
2.612	2.7473
2.617	2.7386
2.638	2.7299
2.64	2.7213
2.654	2.7128
2.67	2.7043
2.669	2.6959
2.688	2.6875
2.695	2.6791
2.683	2.6709
2.696	2.6626
2.7	2.6545
2.702	2.6463
2.708	2.6382
2.69	2.6302
2.69	2.6222
2.697	2.6143
2.697	2.6064
2.693	2.5986
2.696	2.5908
2.692	2.583
2.695	2.5753
2.685	2.5677
2.679	2.5601
2.689	2.5525
2.696	2.545
2.683	2.5375
2.69	2.5301
2.686	2.5227
2.69	2.5154
2.672	2.5081
2.683	2.5008
2.674	2.4936
2.679	2.4864
2.667	2.4793
2.663	2.4722
2.664	2.4651
2.67	2.4581
2.657	2.4511
2.653	2.4442
2.662	2.4373
2.661	2.4305
2.655	2.4236
2.658	2.4169
2.657	2.4101
2.65	2.4034
2.651	2.3967
2.662	2.3901
2.651	2.3835
2.655	2.377
2.652	2.3704
2.649	2.364
2.658	2.3575
2.653	2.3511
2.664	2.3447
2.638	2.3384
2.654	2.3321
2.654	2.3258
2.655	2.3195
2.649	2.3133
2.644	2.3071
2.65	2.301
2.653	2.2949
2.659	2.2888
2.647	2.2828
2.654	2.2767
2.646	2.2708
2.644	2.2648
2.644	2.2589
2.656	2.253
2.649	2.2471
2.642	2.2413
2.636	2.2355
2.642	2.2297
2.652	2.224
2.64	200
2.214	2.6411
2.208	2.6523
2.202	2.6426
2.197	2.6409
2.191	2.6387
2.186	2.6482
2.18	2.6504
2.175	2.6706
2.169	2.6558
2.164	2.6677
2.158	2.645
2.153	2.657
2.148	2.656
2.142	2.6645
2.137	2.6521
2.132	2.6709
2.126	2.6584
2.121	2.6667
2.116	2.6638
2.111	2.6631
2.106	2.6516
2.1	2.6709
2.095	2.666
2.09	2.6323
2.085	2.6616
2.08	2.6521
