Name: Kaolinite Al2Si2O5(OH)4
Type: Mineral
Class: Silicates
Subclass: Phyllosilicates (Chain Silicates); (Serpentine/Kaoline Group)
Particle Size: 0-2 micrometers.  Packed powder simulates coarse.)
Sample No.: kaolinite.2
Owner: JHU
Wavelength Range: IR
Origin: Warren County, Georgia, via Hunt and Salisbury Collection
Description: Cream-colored, earthy clay. Completely disordered kaolinite.
Measurement: Bidirectional reflectance
X Units: Wavelength (micrometers)
Y Units: Reflectance (percent)
wavelength	value
25.0442	19.705
24.3388	20.6425
23.6719	21.6201
23.0407	22.6806
22.4422	19.6552
21.8741	22.123
21.334	27.622
20.8199	29.2597
20.33	17.7504
19.8627	18.7187
19.4163	20.7133
18.9896	24.2353
18.5812	28.5793
18.19	31.7734
17.815	33.4328
17.4551	34.6955
17.1094	33.7524
16.7772	31.766
16.4576	29.8595
16.15	25.5995
15.8537	19.1713
15.568	16.8642
15.2925	15.2988
15.0265	14.2524
14.7697	14.5788
14.5214	15.445
14.2814	15.4538
14.0492	10.7024
13.8244	9.352
13.6067	11.0908
13.3957	12.4433
13.1912	12.2299
12.9929	11.9121
12.8004	12.7983
12.6135	12.7812
12.432	11.7646
12.2557	12.4502
12.0843	13.2715
11.9176	14.0122
11.7555	14.6997
11.5977	15.434
11.444	16.228
11.2944	17.0871
11.1487	18.4301
11.0067	20.7993
10.8682	20.8644
10.7332	18.4751
10.6015	17.6709
10.473	14.9629
10.3476	16.2263
10.2251	18.0524
10.1056	20.4345
9.98873	24.2824
9.87458	27.3198
9.763	25.2314
9.65392	33.8058
9.54724	38.9652
9.44291	42.9984
9.34082	44.431
9.24091	44.4384
9.14312	38.4909
9.04739	31.8593
8.95363	35.0077
8.8618	50.0128
8.77183	52.4835
8.68368	47.649
8.59727	40.7394
8.51257	31.7284
8.42951	20.2844
8.34807	9.497
8.26819	3.3892
8.18981	2.0737
8.11292	2.7541
8.03745	3.5603
7.96337	4.2663
7.89064	4.8772
7.81924	5.4123
7.74911	5.8584
7.68023	6.2544
7.61256	6.5832
7.54608	6.8965
7.48074	7.1714
7.41653	7.4118
7.35341	7.624
7.29136	7.8276
7.23034	8.0205
7.17033	8.2063
7.11132	8.376
7.05327	8.553
6.99616	8.6968
6.93996	8.8406
6.88467	8.9558
6.83024	9.0552
6.77667	9.176
6.72393	9.2925
6.67201	9.3967
6.62089	9.508
6.57054	9.6201
6.52095	9.6911
6.4721	9.7817
6.42398	9.876
6.37657	9.9284
6.32986	9.9839
6.28382	10.0373
6.23845	10.0908
6.19373	10.124
6.14965	10.1162
6.10619	10.1477
6.06334	10.1848
6.02109	10.1772
5.97942	10.23
5.93832	10.2929
5.89778	10.3081
5.8578	10.3061
5.81835	10.3154
5.77943	10.3147
5.74103	10.3508
5.70314	10.3974
5.66574	10.4292
5.62883	10.4814
5.5924	10.532
5.55644	10.5149
5.52093	10.4299
5.48588	10.3359
5.45127	10.3882
5.41709	10.4765
5.38334	10.5368
5.35	10.6145
5.31708	10.6657
5.28456	10.6963
5.25243	10.6745
5.2207	10.645
5.18934	10.6289
5.15836	10.6447
5.12775	10.7019
5.09749	10.8196
5.0676	10.9692
5.03805	11.1267
5.00884	11.269
4.97998	11.3811
4.95144	11.5
4.92322	11.5796
4.89533	11.6443
4.86775	11.7409
4.84048	11.8249
4.81351	11.9489
4.78684	12.0642
4.76047	12.122
4.73439	12.1406
4.70859	12.1499
4.68306	12.1601
4.65782	12.238
4.63284	12.393
4.60814	12.5759
4.58369	12.7368
4.5595	12.8481
4.53557	12.9079
4.51188	12.9516
4.48845	12.9848
4.46525	13.0776
4.44229	13.1325
4.41957	13.1633
4.39708	13.1997
4.37481	13.206
4.35277	13.2339
4.33096	13.2473
4.30935	13.2627
4.28797	13.2661
4.26679	13.1211
4.24583	13.2597
4.22506	13.2978
4.2045	13.313
4.18414	13.3039
4.16398	13.3083
4.14401	13.3147
4.12423	13.3271
4.10464	13.3413
4.08523	13.354
4.066	13.3647
4.04696	13.394
4.02809	13.3965
4.0094	13.4135
3.99088	13.4121
3.97253	13.4228
3.95435	13.4316
3.93634	13.4375
3.91848	13.4365
3.90079	13.4209
3.88326	13.3984
3.86589	13.3554
3.84867	13.342
3.8316	13.309
3.81468	13.2592
3.79791	13.2021
3.78129	13.1652
3.76482	13.1049
3.74848	13.0276
3.73229	12.9585
3.71624	12.8344
3.70032	12.6272
3.68454	12.6079
3.6689	12.6843
3.65338	12.6748
3.638	12.6406
3.62275	12.5757
3.60762	12.5163
3.59262	12.4585
3.57775	12.3774
3.56299	12.3183
3.54836	12.2617
3.53385	12.1826
3.51945	12.1106
3.50517	11.9924
3.49101	11.9839
3.47696	11.9387
3.46303	11.8789
3.4492	11.7959
3.43549	11.6997
3.42188	11.5527
3.40838	11.4987
3.39499	11.5058
3.38171	11.4375
3.36852	11.395
3.35544	11.352
3.34246	11.2881
3.32958	11.226
3.3168	11.1728
3.30411	11.1169
3.29153	11.0442
3.27903	10.9961
3.26664	10.9272
3.25433	10.874
3.24212	10.8276
3.23	10.7558
3.21797	10.6882
3.20603	10.6382
3.19418	10.5752
3.18241	10.5249
3.17074	10.4648
3.15914	10.4336
3.14763	10.3906
3.13621	10.3257
3.12487	10.2671
3.11361	10.2241
3.10243	10.1704
3.09133	10.1176
3.0803	10.1035
3.06936	10.0554
3.0585	9.9963
3.04771	9.9485
3.037	9.9001
3.02636	9.8479
3.0158	9.7778
3.00531	9.7309
2.99489	9.6806
2.98454	9.6045
2.97427	9.5522
2.96407	9.5217
2.95393	9.4612
2.94387	9.4026
2.93387	9.344
2.92394	9.2444
2.91408	9.0254
2.90429	9.0532
2.89456	9.0781
2.88489	9.0381
2.87529	9.0049
2.86576	8.9721
2.85628	8.9399
2.84687	8.8911
2.83752	8.8733
2.82823	8.8371
2.81901	8.8037
2.80984	8.7549
2.80073	8.7239
2.79168	8.6858
2.78269	8.6465
2.77376	8.6936
2.76488	9.0683
2.75606	7.8945
2.7473	8.2295
2.73859	8.2688
2.72994	7.9468
2.72134	7.9389
2.7128	8.4248
2.70431	8.7883
2.69587	6.7715
2.68748	7.2197
2.67915	7.8198
2.67087	8.3203
2.66264	8.6826
2.65446	8.9748
2.64633	9.1723
2.63825	9.3821
2.63021	9.5996
2.62223	9.6972
2.6143	9.7805
2.60641	9.8593
2.59857	9.9006
2.59078	9.9404
2.58304	10.0185
2.57534	10.0312
2.56768	10.0947
2.56008	10.2453
2.55251	10.25
2.54499	10.2658
2.53752	10.3335
2.53009	10.3447
2.5227	10.4018
2.51536	10.4267
2.50806	10.4775
2.5008	10.5488
2.49358	10.5669
2.4864	10.5722
2.47927	10.7173
2.47218	10.8139
2.46512	10.8379
2.45811	10.875
2.45114	10.9101
2.4442	10.9717
2.43731	11.0844
2.43045	11.2773
2.42363	11.374
2.41685	11.4687
2.41011	11.5654
2.40341	11.5254
2.39674	11.4199
2.39011	11.2744
2.38352	11.1665
2.37696	11.2881
2.37044	11.4824
2.36395	11.5312
2.35751	11.4756
2.35109	11.5825
2.34471	11.727
2.33836	11.8672
2.33205	11.8408
2.32578	11.8051
2.31953	11.8252
2.31332	11.9023
2.30714	12.0205
2.301	12.1035
2.29489	12.2173
2.28881	12.3403
2.28276	12.3955
2.27675	12.5415
2.27076	12.6357
2.26481	12.6958
2.25889	12.7524
2.253	12.8012
2.24714	12.7661
2.24131	12.665
2.23551	12.7363
2.22974	12.6953
2.224	12.5122
2.21829	11.9863
2.21261	10.8242
2.20696	9.9599
2.20134	10.8833
2.19574	11.1684
2.19018	11.3247
2.18464	11.4511
2.17913	11.3989
2.17365	11.4282
2.16819	11.4394
2.16277	11.4238
2.15737	11.6001
2.15199	11.8867
2.14665	12.4165
2.14133	12.8691
2.13603	13.1709
2.13077	13.3632
2.12552	13.4394
2.12031	13.5371
2.11512	13.5302
2.10995	13.5068
2.10481	13.8007
2.0997	13.7763
2.09461	13.8545
2.08954	13.916
2.0845	13.9443
2.07948	13.9746
