Name: Clinochlore (Fe+2,Mg)5Al(Si3Al)O10(OH)8
Type: Mineral
Class: Silicates
Subclass: Phyllosilicates (sheet silicates) (Chlorite Group)
Particle Size: Coarse  (74-250 Micrometers)
Sample No.: clinochl.2
Owner: JHU
Wavelength Range: IR
Origin: Hunt and Salisbury Collection (from the Clay Mineral Society
Description: The sample was made up of green chunks of coarsely
Measurement: Bidirectional reflectance
X Units: Wavelength (micrometers)
Y Units: Reflectance (percent)
wavelength	value
25.044	7.3022
24.339	7.6201
23.672	8.4465
23.041	10.888
22.442	10.727
21.874	11.834
21.334	13.427
20.82	13.218
20.33	12.787
19.863	12.125
19.416	10.873
18.99	7.7597
18.581	5.5969
18.19	6.1072
17.815	6.2781
17.455	3.303
17.109	2.1743
16.777	2.4243
16.458	2.8328
16.15	3.2168
15.854	3.6086
15.568	4.0522
15.292	4.3281
15.027	4.1904
14.77	4.074
14.521	3.5259
14.281	3.0579
14.049	3.0723
13.824	3.1433
13.607	3.2873
13.396	3.7129
13.191	4.0771
12.993	3.8691
12.8	3.3389
12.614	2.8799
12.432	2.7053
12.256	2.6719
12.084	2.5095
11.918	2.5481
11.755	2.8686
11.598	3.1416
11.444	3.3369
11.294	3.564
11.149	3.772
11.007	4.0474
10.868	4.4458
10.733	5.0862
10.602	5.9429
10.473	6.5871
10.348	7.239
10.225	8.0849
10.106	9.7436
9.9887	10.948
9.8746	11.45
9.763	11.533
9.6539	10.567
9.5472	9.9287
9.4429	10.723
9.3408	10.778
9.2409	8.622
9.1431	6.9519
9.0474	5.2468
8.9536	3.5017
8.8618	2.0974
8.7718	1.3791
8.6837	1.3684
8.5973	1.5591
8.5126	1.791
8.4295	2.0549
8.3481	2.3064
8.2682	2.5508
8.1898	2.779
8.1129	2.9634
8.0374	3.1318
7.9634	3.302
7.8906	3.4399
7.8192	3.5832
7.7491	3.7038
7.6802	3.8323
7.6126	3.9233
7.5461	4.0168
7.4807	4.1257
7.4165	4.2422
7.3534	4.3498
7.2914	4.4524
7.2303	4.5586
7.1703	4.6675
7.1113	4.7651
7.0533	4.8332
6.9962	4.9116
6.94	4.9687
6.8847	4.9973
6.8302	5.0239
6.7767	5.0671
6.7239	5.0808
6.672	5.0508
6.6209	5.0029
6.5705	4.9509
6.5209	4.8735
6.4721	4.7612
6.424	4.6518
6.3766	4.5347
6.3299	4.437
6.2838	4.3713
6.2385	4.3523
6.1937	4.3628
6.1496	4.4184
6.1062	4.4922
6.0633	4.5737
6.0211	4.6411
5.9794	4.6794
5.9383	4.7075
5.8978	4.7541
5.8578	4.802
5.8184	4.9011
5.7794	5.0676
5.741	5.2429
5.7031	5.3667
5.6657	5.4272
5.6288	5.4709
5.5924	5.5432
5.5564	5.6384
5.5209	5.7558
5.4859	5.895
5.4513	6.0117
5.4171	6.0771
5.3833	6.1194
5.35	6.1452
5.3171	6.1777
5.2846	6.2092
5.2524	6.2558
5.2207	6.3096
5.1893	6.3598
5.1584	6.3821
5.1277	6.3962
5.0975	6.4204
5.0676	6.4365
5.038	6.4453
5.0088	6.4485
4.98	6.4831
4.9514	6.5449
4.9232	6.6523
4.8953	6.7873
4.8678	6.9472
4.8405	7.1142
4.8135	7.3083
4.7868	7.4631
4.7605	7.6614
4.7344	7.906
4.7086	8.1472
4.6831	8.3677
4.6578	8.5586
4.6328	8.7095
4.6081	8.8659
4.5837	9.0913
4.5595	9.2907
4.5356	9.4096
4.5119	9.5085
4.4884	9.6301
4.4652	9.7317
4.4423	9.841
4.4196	9.9302
4.3971	10.017
4.3748	10.097
4.3528	10.161
4.331	10.227
4.3094	10.278
4.288	10.339
4.2668	10.386
4.2458	10.436
4.2251	10.48
4.2045	10.521
4.1841	10.571
4.164	10.599
4.144	10.616
4.1242	10.635
4.1046	10.655
4.0852	10.687
4.066	10.688
4.047	10.697
4.0281	10.691
4.0094	10.684
3.9909	10.669
3.9725	10.662
3.9544	10.649
3.9363	10.626
3.9185	10.617
3.9008	10.601
3.8833	10.57
3.8659	10.521
3.8487	10.462
3.8316	10.416
3.8147	10.366
3.7979	10.33
3.7813	10.292
3.7648	10.236
3.7485	10.181
3.7323	10.124
3.7162	10.069
3.7003	10.01
3.6845	9.9543
3.6689	9.884
3.6534	9.8166
3.638	9.7412
3.6227	9.6345
3.6076	9.5368
3.5926	9.4284
3.5777	9.31
3.563	9.1833
3.5484	9.06
3.5338	8.9436
3.5195	8.8061
3.5052	8.6506
3.491	8.6157
3.477	8.5754
3.463	8.4975
3.4492	8.3965
3.4355	8.2846
3.4219	8.122
3.4084	8.0635
3.395	8.0505
3.3817	7.9783
3.3685	7.9214
3.3554	7.8779
3.3425	7.8005
3.3296	7.737
3.3168	7.6404
3.3041	7.5532
3.2915	7.4595
3.279	7.3652
3.2666	7.2588
3.2543	7.1435
3.2421	7.0151
3.23	6.8762
3.218	6.709
3.206	6.5425
3.1942	6.3777
3.1824	6.1999
3.1707	6.0178
3.1591	5.8381
3.1476	5.6457
3.1362	5.4609
3.1249	5.2751
3.1136	5.0762
3.1024	4.873
3.0913	4.6736
3.0803	4.4775
3.0694	4.2712
3.0585	4.0649
3.0477	3.8816
3.037	3.7112
3.0264	3.5486
3.0158	3.4033
3.0053	3.2771
2.9949	3.1562
2.9845	3.0591
2.9743	2.9565
2.9641	2.895
2.9539	2.8213
2.9439	2.7805
2.9339	2.7888
2.9239	2.78
2.9141	2.7971
2.9043	2.8767
2.8946	2.9768
2.8849	3.0913
2.8753	3.1892
2.8658	3.241
2.8563	3.2236
2.8469	3.1575
2.8375	3.0742
2.8282	2.9902
2.819	2.9626
2.8098	2.9944
2.8007	3.0923
2.7917	3.2866
2.7827	3.6582
2.7738	4.1892
2.7649	4.488
2.7561	4.4836
2.7473	4.5095
2.7386	4.6755
2.7299	4.8977
2.7213	5.4761
2.7128	6.8835
2.7043	8.4116
2.6959	8.9192
2.6875	9.3633
2.6791	9.6523
2.6709	9.8152
2.6626	9.9199
2.6545	9.9839
2.6463	10.052
2.6382	10.116
2.6302	10.136
2.6222	10.165
2.6143	10.172
2.6064	10.152
2.5986	10.127
2.5908	10.11
2.583	10.121
2.5753	10.135
2.5677	10.151
2.5601	10.145
2.5525	10.184
2.545	10.212
2.5375	10.258
2.5301	10.271
2.5227	10.321
2.5154	10.354
2.5081	10.336
2.5008	10.351
2.4936	10.379
2.4864	10.411
2.4793	10.498
2.4722	10.59
2.4651	10.644
2.4581	10.792
2.4511	10.873
2.4442	10.896
2.4373	10.944
2.4305	10.961
2.4236	10.956
2.4169	10.922
2.4101	10.845
2.4034	10.761
2.3967	10.691
2.3901	10.605
2.3835	10.464
2.377	10.267
2.3704	9.9634
2.364	9.6621
2.3575	9.4067
2.3511	9.2427
2.3447	9.1875
2.3384	9.2636
2.3321	9.4067
2.3258	9.5903
2.3195	9.7177
2.3133	9.7541
2.3071	9.8762
2.301	9.9897
2.2949	10.122
2.2888	10.306
2.2828	10.408
2.2767	10.355
2.2708	10.248
2.2648	10.05
2.2589	9.875
2.253	9.8301
2.2471	10.086
2.2413	10.619
2.2355	11.121
2.2297	11.461
2.224	11.668
2.2183	11.807
2.2126	11.868
2.207	11.926
2.2013	11.983
2.1957	12.031
2.1902	12.064
2.1846	12.098
2.1791	12.12
2.1736	12.137
2.1682	12.123
2.1628	12.211
2.1574	12.204
2.152	12.165
2.1466	12.153
2.1413	12.188
2.136	12.168
2.1308	12.181
2.1255	12.127
2.1203	12.179
2.1151	12.169
2.11	12.192
2.1048	12.176
2.0997	12.162
2.0946	12.188
2.0895	12.182
2.0845	12.133
2.0795	12.128
