Name: Sanidine (K,Na)Al3O8
Type: Mineral
Class: Silicates
Subclass: Tectosilicates (Feldspar Group)
Particle Size: Fine  (0 - 74  Micrometers)
Sample No.: sanidine.3
Owner: JHU
Wavelength Range: IR
Origin: Higasinuiro-gun, Taiji, Wakayama, Japan via the Smithsonian
Description: The sample consisted of many small (0.5 cm) euhedral
Measurement: Bidirectional reflectance
X Units: Wavelength (micrometers)
Y Units: Reflectance (percent)
wavelength	value
25.0442	2.4785
24.3388	2.3457
23.6719	2.3423
23.0407	2.5715
22.4422	2.3245
21.8741	1.8069
21.334	1.7173
20.8199	1.8823
20.33	2.218
19.8627	2.5181
19.4163	2.6987
18.9896	2.6655
18.5812	2.2778
18.19	2.1338
17.815	2.1228
17.4551	2.2602
17.1094	2.3984
16.7772	2.4634
16.4576	2.3606
16.15	2.0144
15.8537	1.719
15.568	1.5918
15.2925	1.583
15.0265	1.6299
14.7697	1.9978
14.5214	2.1377
14.2814	1.8552
14.0492	1.606
13.8244	1.4722
13.6067	1.4573
13.3957	1.5059
13.1912	1.5691
12.9929	1.5608
12.8004	1.5166
12.6135	1.5325
12.432	1.8979
12.2557	3.3279
12.0843	4.6958
11.9176	5.0078
11.7555	4.9929
11.5977	4.873
11.444	4.676
11.2944	4.4126
11.1487	4.0737
11.0067	3.6428
10.8682	3.1562
10.7332	2.6309
10.6015	2.2627
10.473	2.0725
10.3476	2.0041
10.2251	1.957
10.1056	2.0046
9.98873	2.0869
9.87458	2.1846
9.763	2.2539
9.65392	2.3364
9.54724	2.4597
9.44291	2.4421
9.34082	2.0632
9.24091	1.8708
9.14312	1.8906
9.04739	1.9214
8.95363	2.0115
8.8618	2.1445
8.77183	2.3984
8.68368	2.6733
8.59727	2.8992
8.51257	3.073
8.42951	3.2739
8.34807	3.562
8.26819	3.8113
8.18981	3.6951
8.11292	3.1438
8.03745	2.384
7.96337	1.5544
7.89064	0.8376
7.81924	0.5203
7.74911	0.6108
7.68023	0.9434
7.61256	1.4099
7.54608	1.9153
7.48074	2.4111
7.41653	2.8801
7.35341	3.3328
7.29136	3.7705
7.23034	4.2095
7.17033	4.6211
7.11132	5.0144
7.05327	5.3601
6.99616	5.6199
6.93996	5.8137
6.88467	5.9597
6.83024	6.1145
6.77667	6.2825
6.72393	6.3999
6.67201	6.5093
6.62089	6.5752
6.57054	6.6477
6.52095	6.6621
6.4721	6.6411
6.42398	6.5647
6.37657	6.4382
6.32986	6.3071
6.28382	6.2163
6.23845	6.196
6.19373	6.2561
6.14965	6.3513
6.10619	6.4846
6.06334	6.6284
6.02109	6.7466
5.97942	6.8557
5.93832	6.9223
5.89778	6.9001
5.8578	6.8318
5.81835	6.7341
5.77943	6.635
5.74103	6.5669
5.70314	6.4787
5.66574	6.404
5.62883	6.4011
5.5924	6.5017
5.55644	6.7204
5.52093	7.0263
5.48588	7.3989
5.45127	7.7746
5.41709	8.1286
5.38334	8.4192
5.35	8.6802
5.31708	8.9189
5.28456	9.1689
5.25243	9.4839
5.2207	9.876
5.18934	10.331
5.15836	10.8115
5.12775	11.3044
5.09749	11.7983
5.0676	12.25
5.03805	12.6718
5.00884	12.9963
4.97998	13.1584
4.95144	13.2092
4.92322	13.1628
4.89533	13.1145
4.86775	13.0781
4.84048	13.102
4.81351	13.1567
4.78684	13.2146
4.76047	13.2727
4.73439	13.3264
4.70859	13.383
4.68306	13.4699
4.65782	13.5864
4.63284	13.7631
4.60814	13.9924
4.58369	14.2314
4.5595	14.4904
4.53557	14.7763
4.51188	15.0456
4.48845	15.3366
4.46525	15.6274
4.44229	15.8903
4.41957	16.1743
4.39708	16.4172
4.37481	16.6716
4.35277	16.9148
4.33096	17.1445
4.30935	17.3637
4.28797	17.5683
4.26679	17.7629
4.24583	17.9343
4.22506	18.0642
4.2045	18.1784
4.18414	18.2612
4.16398	18.3195
4.14401	18.3518
4.12423	18.3754
4.10464	18.4082
4.08523	18.4411
4.066	18.4667
4.04696	18.487
4.02809	18.4902
4.0094	18.5097
3.99088	18.5168
3.97253	18.529
3.95435	18.5459
3.93634	18.5788
3.91848	18.6091
3.90079	18.6438
3.88326	18.6457
3.86589	18.6645
3.84867	18.6716
3.8316	18.6804
3.81468	18.7092
3.79791	18.7214
3.78129	18.7507
3.76482	18.7602
3.74848	18.7673
3.73229	18.7841
3.71624	18.7841
3.70032	18.7827
3.68454	18.7712
3.6689	18.7639
3.65338	18.7639
3.638	18.7666
3.62275	18.7653
3.60762	18.7641
3.59262	18.7536
3.57775	18.7326
3.56299	18.7136
3.54836	18.6752
3.53385	18.6538
3.51945	18.5739
3.50517	18.4472
3.49101	18.4685
3.47696	18.4555
3.46303	18.4304
3.4492	18.3447
3.43549	18.2902
3.42188	18.1635
3.40838	18.1228
3.39499	18.2133
3.38171	18.2224
3.36852	18.2331
3.35544	18.1928
3.34246	18.3151
3.32958	18.3435
3.3168	18.3442
3.30411	18.3469
3.29153	18.3212
3.27903	18.2956
3.26664	18.2697
3.25433	18.2226
3.24212	18.2089
3.23	18.1704
3.21797	18.1325
3.20603	18.1062
3.19418	18.0822
3.18241	18.0656
3.17074	18.0119
3.15914	17.9897
3.14763	17.9575
3.13621	17.9165
3.12487	17.8806
3.11361	17.8642
3.10243	17.8388
3.09133	17.8125
3.0803	17.7941
3.06936	17.7648
3.0585	17.7226
3.04771	17.7224
3.037	17.7163
3.02636	17.6757
3.0158	17.653
3.00531	17.6381
2.99489	17.6127
2.98454	17.6118
2.97427	17.5737
2.96407	17.5449
2.95393	17.5231
2.94387	17.5136
2.93387	17.5024
2.92394	17.4921
2.91408	17.4643
2.90429	17.4736
2.89456	17.4792
2.88489	17.4663
2.87529	17.4638
2.86576	17.5073
2.85628	17.5224
2.84687	17.5041
2.83752	17.4765
2.82823	17.4775
2.81901	17.4858
2.80984	17.4814
2.80073	17.4814
2.79168	17.4892
2.78269	17.4975
2.77376	17.4838
2.76488	17.4169
2.75606	17.3864
2.7473	17.2814
2.73859	17.2377
2.72994	17.2944
2.72134	17.271
2.7128	17.5732
2.70431	17.726
2.69587	18.0639
2.68748	18.2915
2.67915	18.4448
2.67087	18.5429
2.66264	18.6074
2.65446	18.625
2.64633	18.6152
2.63825	18.6198
2.63021	18.6135
2.62223	18.5827
2.6143	18.5952
2.60641	18.583
2.59857	18.5522
2.59078	18.5493
2.58304	18.5334
2.57534	18.5144
2.56768	18.5136
2.56008	18.4719
2.55251	18.4482
2.54499	18.4213
2.53752	18.3967
2.53009	18.3847
2.5227	18.361
2.51536	18.3186
2.50806	18.312
2.5008	18.2941
2.49358	18.2727
2.4864	18.248
2.47927	18.2551
2.47218	18.208
2.46512	18.1428
2.45811	18.1899
2.45114	18.163
2.4442	18.1235
2.43731	18.1225
2.43045	18.0991
2.42363	18.1018
2.41685	18.082
2.41011	18.0832
2.40341	18.0654
2.39674	18.008
2.39011	17.9982
2.38352	17.9863
2.37696	17.9697
2.37044	17.9592
2.36395	17.9209
2.35751	17.9123
2.35109	17.9096
2.34471	17.9033
2.33836	17.8535
2.33205	17.8498
2.32578	17.771
2.31953	17.7912
2.31332	17.748
2.30714	17.7636
2.301	17.7255
2.29489	17.7519
2.28881	17.7509
2.28276	17.7014
2.27675	17.7326
2.27076	17.6884
2.26481	17.7131
2.25889	17.7128
2.253	17.7026
2.24714	17.6655
2.24131	17.6445
2.23551	17.6738
2.22974	17.5961
2.224	17.6225
2.21829	17.6684
2.21261	17.6289
2.20696	17.6318
2.20134	17.6215
2.19574	17.6894
2.19018	17.6933
2.18464	17.6528
2.17913	17.6074
2.17365	17.6293
2.16819	17.6626
2.16277	17.6821
2.15737	17.7085
2.15199	17.6552
2.14665	17.6396
2.14133	17.6738
2.13603	17.6582
2.13077	17.6552
2.12552	17.6416
2.12031	17.6391
2.11512	17.6884
2.10995	17.6816
2.10481	17.7006
2.0997	17.686
2.09461	17.7431
2.08954	17.7172
2.0845	17.7431
2.07948	17.7172
