Name: Granodiorite
Type: Rocks
Class: Igneous
Subclass: Intermediate
Particle Size: Solid
Sample No.: Granodior.H1
Owner: JHU
Origin: St. Cloud, Stearns County, Minnesota, via Ward's Scientific (Cat.
Description: A dark gray medium-grained rock consisting of gray
Measurement: Directional (10 degree) hemispherical reflectance
X Units: Wavelength (micrometers)
Y Units: Reflectance (percent)
wavelength	value
14.0112	5.7206
13.7147	6.0337
13.4304	5.5613
13.1577	5.9194
12.8959	7.0571
12.6443	5.8148
12.4023	5.699
12.1694	4.4644
11.945	5.3772
11.7289	6.1784
11.5203	6.7348
11.3191	7.4916
11.1248	8.4745
10.937	9.5904
10.7555	10.5086
10.5799	11.86
10.4099	13.3448
10.2454	15.4532
10.0859	18.1675
9.9313	20.627
9.7814	20.9244
9.636	21.5163
9.4948	22.0047
9.3577	24.1476
9.2245	25.5789
9.095	24.607
8.9691	24.2308
8.8467	25.0555
8.7275	25.0136
8.6116	21.4839
8.4986	24.5097
8.3886	23.2748
8.2814	20.0366
8.1769	14.8931
8.075	8.226
7.9756	4.3704
7.8786	2.3826
7.784	1.6478
7.6916	1.3177
7.6014	1.1702
7.5133	1.1442
7.4272	1.159
7.343	1.2258
7.2607	1.3382
7.1803	1.4543
7.1016	1.6275
7.0246	1.7271
6.9493	1.819
6.8755	1.8473
6.8034	1.8855
6.7327	1.9566
6.6634	2.0187
6.5956	2.0772
6.5292	2.0883
6.464	2.1628
6.4002	2.1875
6.3376	2.1902
6.2762	2.1919
6.216	2.2031
6.157	2.2922
6.099	2.332
6.0421	2.4241
5.9863	2.4366
5.9315	2.4593
5.8777	2.5338
5.8249	2.6482
5.773	2.7361
5.722	2.8153
5.6719	2.8294
5.6227	2.8322
5.5744	2.8786
5.5268	2.9681
5.4801	3.1094
5.4341	3.1859
5.3889	3.1889
5.3445	3.2306
5.3008	3.2917
5.2578	3.3916
5.2154	3.5564
5.1738	3.6963
5.1328	3.7936
5.0925	3.933
5.0528	4.0181
5.0137	4.0999
4.9752	4.2516
4.9373	4.4004
4.9	4.6181
4.8632	4.9444
4.827	5.1951
4.7913	5.3093
4.7561	5.4945
4.7215	5.6379
4.6873	5.6576
4.6536	5.8849
4.6205	6.1971
4.5877	6.488
4.5555	6.7071
4.5237	6.7802
4.4923	6.769
4.4614	6.914
4.4309	7.2199
4.4008	7.5492
4.3711	7.9394
4.3418	8.2764
4.3129	8.501
4.2844	8.6212
4.2563	8.8385
4.2285	9.0513
4.2011	9.2564
4.174	9.4418
4.1473	9.5789
4.1209	9.7125
4.0949	9.8179
4.0692	9.9558
4.0438	10.0303
4.0187	10.0184
3.994	9.9708
3.9695	10.0031
3.9453	10.2039
3.9214	10.3319
3.8979	10.3621
3.8746	10.3568
3.8515	10.3973
3.8288	10.4911
3.8063	10.5663
3.7841	10.6117
3.7621	10.5731
3.7404	10.616
3.7189	10.6474
3.6977	10.7278
3.6767	10.7969
3.656	10.8171
3.6355	10.8189
3.6152	10.834
3.5951	10.8168
3.5753	10.7498
3.5557	10.7652
3.5363	10.7119
3.5171	10.533
3.4981	10.3026
3.4793	10.3488
3.4607	10.3394
3.4423	10.2086
3.4241	9.8264
3.4061	9.832
3.3883	9.8888
3.3707	9.8231
3.3533	9.8714
3.336	9.8317
3.3189	9.7545
3.302	9.6403
3.2853	9.5555
3.2687	9.4139
3.2523	9.2686
3.2361	9.1387
3.22	9.0039
3.204	8.8164
3.1883	8.6702
3.1727	8.4708
3.1572	8.279
3.1419	8.1659
3.1268	7.9764
3.1117	7.9017
3.0969	7.8316
3.0821	7.7002
3.0675	7.5872
3.0531	7.499
3.0388	7.4306
3.0246	7.3854
3.0105	7.267
2.9966	7.1426
2.9828	7.1172
2.9692	7.0031
2.9556	6.8888
2.9422	6.9208
2.9289	6.9733
2.9157	6.9968
2.9027	7.0592
2.8897	7.2152
2.8769	7.3033
2.8642	7.3901
2.8516	7.4166
2.8391	7.4641
2.8267	7.631
2.8144	7.7423
2.8022	7.9802
2.7902	8.228
2.7782	8.3065
2.7664	8.3062
2.7546	8.4377
2.7429	8.8239
2.7314	9.2662
2.7199	10.1693
2.7085	11.207
2.6973	11.9287
2.6861	12.8039
2.675	13.6982
2.664	13.89
2.6531	13.9
2.6423	14.0786
2.6315	14.062
2.6209	14.1496
2.6103	14.1278
2.5999	14.1825
2.5895	14.1963
2.5792	14.2551
2.569	14.2545
2.5588	14.3503
2.5487	14.339
2.5388	14.4018
2.5289	14.4197
2.519	14.4135
2.5093	14.4478
2.4996	14.4947
2.49	14.466
2.4805	14.4693
2.471	14.5678
2.4616	14.5233
2.4523	14.5574
2.4431	14.6451
2.4339	14.6168
2.4248	14.5875
2.4157	14.6597
2.4068	14.6395
2.3979	14.5026
2.389	14.5148
2.3802	14.5612
2.3715	14.7126
2.3629	14.7919
2.3543	14.7948
2.3458	14.6652
2.3373	14.707
2.3289	14.6428
2.3206	14.6836
2.3123	14.7473
2.3041	14.8239
2.2959	14.9594
2.2878	15.0255
2.2798	15.2116
2.2718	15.3236
2.2638	15.2786
2.2559	15.3802
2.2481	15.3347
2.2403	15.4366
2.2326	15.4345
2.225	15.5467
2.2173	15.5243
2.2098	15.4769
2.2023	15.5151
2.1948	15.6178
2.1874	15.6264
2.18	15.5605
2.1727	15.6223
2.1655	15.6492
2.1583	15.7092
2.1511	15.668
2.144	15.7457
2.1369	15.7729
2.1299	15.6755
2.1229	15.6836
2.116	15.734
2.1091	15.7298
2.1023	15.6942
2.0955	15.8018
2.0887	15.7675
2.082	15.8119
2.06	15.8097
2.028	15.7919
1.996	15.7831
1.964	15.642
1.932	15.6299
1.9	15.7442
1.868	15.8753
1.836	16.0067
1.804	16.0248
1.772	15.85
1.74	15.9095
1.708	15.9591
1.676	15.9406
1.644	15.904
1.612	15.897
1.58	15.8572
1.548	15.8351
1.516	15.8682
1.484	15.708
1.452	15.7783
1.42	15.719
1.388	15.4915
1.356	15.8318
1.324	15.6614
1.292	15.6601
1.26	15.6286
1.228	15.7121
1.196	15.7883
1.164	15.8172
1.132	15.8677
1.1	16.0402
1.068	16.1726
1.036	16.3226
1.004	16.4431
0.972	16.6814
0.94	16.9128
0.908	17.1508
0.876	17.345
0.844	17.6143
0.812	17.9068
0.795	17.9986
0.787	17.7382
0.779	17.8523
0.771	17.7439
0.763	17.8449
0.755	17.913
0.747	17.6791
0.739	17.6572
0.731	17.8327
0.723	17.8841
0.715	17.8677
0.707	18.1168
0.699	18.133
0.691	18.0347
0.683	18.0254
0.675	17.9826
0.667	18.2115
0.659	17.905
0.651	18.0358
0.643	17.9251
0.635	18.2447
0.627	17.988
0.619	18.1912
0.611	18.1365
0.603	18.2475
0.595	18.7245
0.587	18.2897
0.579	18.416
0.571	18.0071
0.563	18.2496
0.555	18.4642
0.547	18.304
0.539	18.3849
0.531	18.1091
0.523	18.5158
0.515	18.2653
0.507	18.1571
0.499	17.9873
0.491	17.7694
0.483	17.7627
0.475	17.5821
0.467	17.6837
0.459	17.33
0.451	17.3558
0.443	16.818
0.435	16.3502
0.427	16.6537
0.419	16.1295
0.411	15.8461
0.403	15.4615
