Name: Wollastonite CaSiO3
Type: Mineral
Class: Silicates
Subclass: Inosilicates (Chain Silicates); (Pyroxenoid Group)
Particle Size: Solid (cleavage face)
Sample No.: wollasto.1
Owner: JHU
Wavelength Range: IR
Origin: Santa Fe Mine, Pichucalco, Chiapas, Mexico via the
Description: The sample consisted of a 2 cm x 1 cm x 0.5 cm well-
Measurement: Bidirectional reflectance
X Units: Wavelength (micrometers)
Y Units: Reflectance (percent)
wavelength	value
25.0442	14.2246
24.3388	14.3164
23.6719	14.5009
23.0407	16.4502
22.4422	20.0117
21.8741	24.4824
21.334	23.7216
20.8199	30.7553
20.33	32.6733
19.8627	24.7333
19.4163	25.9133
18.9896	25.2646
18.5812	26.839
18.19	27.8979
17.815	29.1059
17.4551	24.8447
17.1094	15.6025
16.7772	11.2998
16.4576	12.0512
16.15	12.5351
15.8537	13.0603
15.568	13.6406
15.2925	14.0107
15.0265	11.9814
14.7697	12.5803
14.5214	14.3239
14.2814	13.5376
14.0492	13.4773
13.8244	13.5048
13.6067	13.5893
13.3957	13.53
13.1912	13.6621
12.9929	13.8589
12.8004	13.986
12.6135	14.1953
12.432	14.3318
12.2557	14.6137
12.0843	14.9509
11.9176	15.3332
11.7555	15.7624
11.5977	16.3408
11.444	16.9428
11.2944	17.8217
11.1487	19.9663
11.0067	24.2145
10.8682	23.6608
10.7332	25.2092
10.6015	22.2817
10.473	25.0549
10.3476	25.2612
10.2251	23.6459
10.1056	26.7973
9.98873	27.0788
9.87458	25.7673
9.763	24.7604
9.65392	23.7912
9.54724	18.3625
9.44291	22.3176
9.34082	33.5846
9.24091	35.3852
9.14312	35.6835
9.04739	35.2323
8.95363	32.5885
8.8618	28.6911
8.77183	23.3669
8.68368	19.8969
8.59727	17.0886
8.51257	13.5117
8.42951	8.7353
8.34807	4.9524
8.26819	5.5473
8.18981	6.3169
8.11292	6.9636
8.03745	7.436
7.96337	7.7412
7.89064	7.9704
7.81924	8.2366
7.74911	8.4829
7.68023	8.6919
7.61256	8.9096
7.54608	9.1255
7.48074	9.2837
7.41653	9.531
7.35341	9.7043
7.29136	9.8772
7.23034	10.0295
7.17033	10.1377
7.11132	10.323
7.05327	10.3113
6.99616	10.4709
6.93996	10.6023
6.88467	10.6804
6.83024	10.729
6.77667	10.9863
6.72393	10.9175
6.67201	11.1352
6.62089	11.1909
6.57054	11.1897
6.52095	11.0427
6.4721	11.1284
6.42398	10.8608
6.37657	10.7661
6.32986	10.812
6.28382	10.7151
6.23845	10.698
6.19373	10.5952
6.14965	10.7309
6.10619	10.8684
6.06334	10.7851
6.02109	10.5354
5.97942	10.7307
5.93832	10.5205
5.89778	10.5561
5.8578	10.8264
5.81835	10.9404
5.77943	10.7783
5.74103	10.9096
5.70314	11.0132
5.66574	11.0327
5.62883	11.0798
5.5924	11.0793
5.55644	11.1115
5.52093	11.2358
5.48588	11.2553
5.45127	11.3386
5.41709	11.4585
5.38334	11.3469
5.35	11.3962
5.31708	11.3718
5.28456	11.3708
5.25243	11.3191
5.2207	11.2646
5.18934	11.2888
5.15836	11.2981
5.12775	11.3022
5.09749	11.3012
5.0676	11.2812
5.03805	11.2563
5.00884	11.2385
4.97998	11.2024
4.95144	11.1948
4.92322	11.1294
4.89533	11.1228
4.86775	11.1096
4.84048	11.1071
4.81351	11.1018
4.78684	11.093
4.76047	11.0747
4.73439	11.1074
4.70859	11.133
4.68306	11.1259
4.65782	11.1501
4.63284	11.2199
4.60814	11.2929
4.58369	11.3081
4.5595	11.3335
4.53557	11.4433
4.51188	11.4887
4.48845	11.5009
4.46525	11.5117
4.44229	11.5146
4.41957	11.5051
4.39708	11.5119
4.37481	11.5022
4.35277	11.5039
4.33096	11.4392
4.30935	11.4721
4.28797	11.5175
4.26679	11.5761
4.24583	11.4482
4.22506	11.6916
4.2045	11.5742
4.18414	11.5285
4.16398	11.5207
4.14401	11.5334
4.12423	11.5547
4.10464	11.5647
4.08523	11.5717
4.066	11.5713
4.04696	11.5676
4.02809	11.5566
4.0094	11.5276
3.99088	11.5144
3.97253	11.4953
3.95435	11.4834
3.93634	11.4785
3.91848	11.459
3.90079	11.4255
3.88326	11.3982
3.86589	11.3696
3.84867	11.3239
3.8316	11.3054
3.81468	11.2588
3.79791	11.2448
3.78129	11.2092
3.76482	11.1484
3.74848	11.1096
3.73229	11.07
3.71624	11.0222
3.70032	10.9814
3.68454	10.945
3.6689	10.9101
3.65338	10.8774
3.638	10.8215
3.62275	10.7876
3.60762	10.7529
3.59262	10.7234
3.57775	10.6819
3.56299	10.6606
3.54836	10.6313
3.53385	10.6079
3.51945	10.573
3.50517	10.541
3.49101	10.521
3.47696	10.5039
3.46303	10.4863
3.4492	10.4472
3.43549	10.4275
3.42188	10.4123
3.40838	10.3613
3.39499	10.3198
3.38171	10.3088
3.36852	10.268
3.35544	10.2593
3.34246	10.2158
3.32958	10.1821
3.3168	10.156
3.30411	10.1228
3.29153	10.0971
3.27903	10.0678
3.26664	10.0149
3.25433	9.9878
3.24212	9.9638
3.23	9.9411
3.21797	9.8955
3.20603	9.8567
3.19418	9.8178
3.18241	9.7773
3.17074	9.7375
3.15914	9.6987
3.14763	9.6577
3.13621	9.6511
3.12487	9.6164
3.11361	9.5942
3.10243	9.5473
3.09133	9.5088
3.0803	9.477
3.06936	9.4477
3.0585	9.4367
3.04771	9.4155
3.037	9.3882
3.02636	9.3628
3.0158	9.3279
3.00531	9.3115
2.99489	9.2812
2.98454	9.2358
2.97427	9.2226
2.96407	9.1865
2.95393	9.1794
2.94387	9.1347
2.93387	9.1113
2.92394	9.0796
2.91408	9.0639
2.90429	9.0552
2.89456	8.9995
2.88489	8.9858
2.87529	8.9477
2.86576	8.9678
2.85628	8.8891
2.84687	8.8969
2.83752	8.8891
2.82823	8.812
2.81901	8.8938
2.80984	8.8149
2.80073	9.0112
2.79168	8.8301
2.78269	8.7734
2.77376	8.8279
2.76488	8.9219
2.75606	8.7092
2.7473	9.0156
2.73859	9.5698
2.72994	9.313
2.72134	9.342
2.7128	9.511
2.70431	9.6706
2.69587	9.594
2.68748	9.7309
2.67915	9.675
2.67087	9.5215
2.66264	9.9143
2.65446	9.8257
2.64633	9.6562
2.63825	9.7617
2.63021	9.7817
2.62223	9.6821
2.6143	9.844
2.60641	9.6721
2.59857	9.6401
2.59078	9.7363
2.58304	9.8379
2.57534	9.7617
2.56768	9.7539
2.56008	9.7871
2.55251	9.5288
2.54499	9.5559
2.53752	9.4927
2.53009	9.5615
2.5227	9.4941
2.51536	9.4914
2.50806	9.476
2.5008	9.4485
2.49358	9.4739
2.4864	9.4321
2.47927	9.3789
2.47218	9.374
2.46512	9.4116
2.45811	9.3496
2.45114	9.3603
2.4442	9.344
2.43731	9.2932
2.43045	9.3203
2.42363	9.2756
2.41685	9.2834
2.41011	9.2832
2.40341	9.2993
2.39674	9.3183
2.39011	9.2676
2.38352	9.2539
2.37696	9.2676
2.37044	9.209
2.36395	9.2326
2.35751	9.2365
2.35109	9.2241
2.34471	9.2041
2.33836	9.1877
2.33205	9.1721
2.32578	9.2199
2.31953	9.1875
2.31332	9.143
2.30714	9.166
2.301	9.1172
2.29489	9.1318
2.28881	9.1391
2.28276	9.1328
2.27675	9.1465
2.27076	9.1079
2.26481	9.1162
2.25889	9.1567
2.253	9.1054
2.24714	9.0825
2.24131	9.0957
2.23551	9.0459
2.22974	9.0844
2.224	9.0923
2.21829	9.0283
2.21261	9.0786
2.20696	9.0332
2.20134	8.9726
2.19574	9.0234
2.19018	8.9775
2.18464	9.0644
2.17913	9.0078
2.17365	8.9575
2.16819	8.9922
2.16277	9.0024
2.15737	8.9189
2.15199	8.9516
2.14665	8.9082
2.14133	8.9795
2.13603	8.9067
2.13077	8.915
2.12552	8.9282
2.12031	8.8872
2.11512	8.9043
2.10995	8.8813
2.10481	8.8457
2.0997	8.8852
2.09461	8.874
2.08954	8.8252
2.0845	8.8305
2.07948	8.8125
