Name: Labradorite (Na,Ca)Al(Al,Si)Si2O8
Type: Mineral
Class: Silicates
Subclass: Tectosilicates (Framework Silicates); (Feldspar Group)
Particle Size: Fine  (Less than 2 micrometers)
Sample No.: labrador.1
Owner: JHU
Wavelength Range: IR
Origin: Lake County, Oregon, acquired from the Smithsonian (sample
Description: The sample consisted of a 2 cm x 1 cm x 0.2 cm, 0.536 g
Measurement: Transmission
X Units: Wavelength (micrometers)
Y Units: Transmittence (percent)
wavelength	value
25.044	46.4491
24.339	49.1835
23.672	51.8475
23.041	55.2391
22.442	62.5477
21.874	63.2743
21.334	60.6717
20.82	63.8953
20.33	70.202
19.863	69.7386
19.416	65.2889
18.99	58.973
18.581	47.1473
18.19	50.8768
17.815	47.8651
17.455	39.9022
17.109	40.2108
16.777	44.2294
16.458	47.1503
16.15	46.1503
15.854	48.8759
15.568	60.6375
15.292	67.0687
15.027	67.1346
14.77	66.5682
14.521	68.0784
14.281	69.3343
14.049	69.2606
13.824	67.4874
13.607	65.2442
13.396	64.7208
13.191	64.9356
12.993	66.6309
12.8	70.3133
12.614	75.7352
12.432	78.8038
12.256	78.1228
12.084	73.2566
11.918	67.5567
11.755	62.753
11.598	58.6944
11.444	53.3671
11.294	45.6405
11.149	37.4357
11.007	31.352
10.868	27.1943
10.733	24.8525
10.602	23.6513
10.473	23.591
10.348	23.8657
10.225	23.5969
10.106	23.1193
9.989	23.6013
9.875	24.9282
9.763	26.5019
9.654	28.1742
9.547	29.839
9.443	30.8002
9.341	30.7521
9.241	30.0927
9.143	29.2338
9.047	29.9604
8.954	31.5634
8.862	32.2909
8.772	31.8703
8.684	32.2841
8.597	35.1064
8.513	39.2511
8.43	44.3671
8.348	50.1244
8.268	55.8573
8.19	60.2855
8.113	63.5887
8.037	66.1375
7.963	68.4334
7.891	70.1917
7.819	71.6695
7.749	73.0201
7.68	74.1966
7.613	75.4847
7.546	76.5765
7.481	77.5545
7.417	78.3658
7.353	79.1443
7.291	79.9065
7.23	80.5503
7.17	81.4959
7.111	82.2591
7.053	82.6717
6.996	83.2693
6.94	83.9141
6.885	84.26
6.83	84.5686
6.777	84.8972
6.724	85.302
6.672	85.7393
6.621	86.0945
6.571	86.4514
6.521	86.6878
6.472	86.9749
6.424	87.2132
6.377	87.3533
6.33	87.4622
6.284	87.51
6.238	87.4527
6.194	86.9878
6.15	86.6072
6.106	86.7229
6.063	87.3035
6.021	88.7942
5.979	89.8631
5.938	89.8386
5.898	89.9666
5.858	90.2068
5.818	90.6546
5.779	90.9221
5.741	91.1277
5.703	91.2991
5.666	91.4226
5.629	91.6384
5.592	91.8733
5.556	92.0754
5.521	92.156
5.486	92.3049
5.451	92.491
5.417	92.6897
5.383	92.8264
5.35	93.0447
5.317	93.1755
5.285	93.3206
5.252	93.4783
5.221	93.6179
5.189	93.7737
5.158	93.9822
5.128	94.0686
5.097	94.196
5.068	94.3054
5.038	94.4155
5.009	94.5088
4.98	94.6465
4.951	94.8066
4.923	94.8752
4.895	94.9395
4.868	95.0022
4.84	95.0803
4.814	95.2302
4.787	95.3333
4.76	95.4316
4.734	95.5188
4.709	95.5972
4.683	95.6824
4.658	95.7422
4.633	95.915
4.608	96.1577
4.584	96.1013
4.56	96.1785
4.536	96.2053
4.512	96.2568
4.488	96.3308
4.465	96.385
4.442	96.4397
4.42	96.4895
4.397	96.5674
4.375	96.6804
4.353	96.7048
4.331	96.7795
4.309	96.833
4.288	96.8601
4.267	96.948
4.246	96.9902
4.225	97.0459
4.205	97.051
4.184	97.1125
4.164	97.1843
4.144	97.1995
4.124	97.2683
4.105	97.283
4.085	97.2969
4.066	97.3757
4.047	97.3821
4.028	97.4402
4.009	97.4668
3.991	97.4709
3.973	97.5098
3.954	97.5652
3.936	97.6846
3.918	97.7119
3.901	97.7119
3.883	97.7527
3.866	97.6833
3.849	97.7497
3.832	97.7624
3.815	97.8557
3.798	97.8369
3.781	97.8269
3.765	97.8779
3.748	97.7981
3.732	97.9004
3.716	97.8799
3.7	97.8513
3.685	97.8664
3.669	97.8289
3.653	97.8816
3.638	97.9456
3.623	97.8779
3.608	97.8621
3.593	97.9475
3.578	97.8972
3.563	97.8664
3.548	97.9392
3.534	97.9209
3.519	97.8728
3.505	97.9788
3.491	97.8528
3.477	97.835
3.463	97.8291
3.449	97.822
3.435	97.8484
3.422	97.8611
3.408	97.6658
3.395	97.7156
3.382	97.7617
3.369	97.7803
3.355	97.5164
3.342	97.6101
3.33	97.6443
3.317	97.5234
3.304	97.583
3.292	97.616
3.279	97.5623
3.267	97.5295
3.254	97.512
3.242	97.5955
3.23	97.5359
3.218	97.5242
3.206	97.4856
3.194	97.2771
3.182	97.2703
3.171	97.1423
3.159	97.0618
3.148	96.9163
3.136	96.7449
3.125	96.5852
3.114	96.3967
3.102	96.1174
3.091	95.8425
3.08	95.6658
3.069	95.49
3.058	95.2424
3.048	95.1882
3.037	94.9749
3.026	94.7854
3.016	94.385
3.005	93.948
2.995	93.3831
2.985	92.8147
2.974	91.9749
2.964	91.0964
2.954	90.4944
2.944	89.95
2.934	89.471
2.924	89.2346
2.914	89.0081
2.904	89.1248
2.895	89.4553
2.885	89.8396
2.875	90.0877
2.866	90.4627
2.856	91.053
2.847	91.3635
2.838	91.9417
2.828	92.3914
2.819	93.0808
2.81	93.551
2.801	94.1736
2.792	94.741
2.783	95.4202
2.774	95.9573
2.765	96.449
2.756	97.0212
2.747	97.6824
2.739	97.9221
2.73	98.2556
2.721	98.3103
2.713	98.363
2.704	98.7346
2.696	98.8909
2.687	99.1619
2.679	99.2478
2.671	99.3513
2.663	99.1638
2.654	99.1941
2.646	99.363
2.638	99.2654
2.63	99.3201
2.622	99.3386
2.614	99.3357
2.606	99.3708
2.599	99.3376
2.591	99.3611
2.583	99.5232
2.575	99.3367
2.568	99.322
2.56	99.5447
2.553	99.4031
2.545	99.3533
2.538	99.5203
2.53	99.3767
2.523	99.3357
2.515	99.3513
2.508	99.5505
2.501	99.5867
2.494	99.3728
2.486	99.5281
2.479	99.3562
2.472	99.5935
2.465	99.697
2.458	99.7117
2.451	99.5671
2.444	99.4704
2.437	99.5486
2.43	99.4451
2.424	99.5544
2.417	99.6218
2.41	99.7244
2.403	99.7185
2.397	99.574
2.39	99.4646
2.384	99.6492
2.377	99.6579
2.37	99.6326
2.364	99.5056
2.358	99.7078
2.351	99.7341
2.345	99.7263
2.338	99.8445
2.332	99.7888
2.326	99.5046
2.32	99.8679
2.313	99.7898
2.307	100.011
2.301	99.8943
2.295	99.8318
2.289	100.002
2.283	99.7244
2.277	99.7322
2.271	99.8083
2.265	99.738
2.259	99.8103
2.253	99.906
2.247	100.011
2.241	100.15
2.236	99.8689
2.23	99.8845
2.224	99.9646
2.218	99.824
2.213	100.111
2.207	99.9724
2.201	99.8845
2.196	99.9997
2.19	100.129
2.185	99.9294
2.179	99.7263
2.174	99.9079
2.168	99.9997
2.163	100.254
2.157	100.164
2.152	99.7986
2.147	99.9079
2.141	99.9412
2.136	100.121
2.131	99.9372
2.126	99.7283
2.12	99.7048
2.115	100.16
2.11	100.144
2.105	99.7829
2.1	100.168
2.095	100.23
2.09	100.299
2.085	99.9138
2.079	100.439
