Name: Natrolite Na2Al2Si3O10.2H2O
Type: Mineral
Class: Silicates
Subclass: Tectosilicates (Framework Silicates); (ZeoliteGroup)
Particle Size: Solid
Sample No.: natrol.1
Owner: JHU
Wavelength Range: IR
Origin: Poonah, India via Hunt and Salisbury Collection #169B
Description: The sample appeared to be pure natrolite, although most
Measurement: Bidirectional reflectance
X Units: Wavelength (micrometers)
Y Units: Reflectance (percent)
wavelength	value
25.0442	16.7773
24.3388	23.6542
23.6719	32.3095
23.0407	14.6699
22.4422	13.3232
21.8741	9.1367
21.334	12.0341
20.8199	14.9536
20.33	18.186
19.8627	19.3271
19.4163	17.0356
18.9896	11.5429
18.5812	12.8193
18.19	13.6074
17.815	13.9658
17.4551	16.0283
17.1094	14.3713
16.7772	17.0815
16.4576	18.4121
16.15	23.3312
15.8537	27.4672
15.568	18.3144
15.2925	11.1311
15.0265	11.4424
14.7697	12.6821
14.5214	11.1111
14.2814	7.917
14.0492	7.3149
13.8244	7.7519
13.6067	6.7329
13.3957	7.885
13.1912	8.7524
12.9929	9.2698
12.8004	9.8703
12.6135	10.3872
12.432	10.8474
12.2557	11.3672
12.0843	11.8803
11.9176	12.4196
11.7555	12.977
11.5977	13.58
11.444	14.2458
11.2944	15.0424
11.1487	16.0122
11.0067	17.2255
10.8682	18.8449
10.7332	21.1252
10.6015	24.6142
10.473	31.5058
10.3476	45.5609
10.2251	41.6913
10.1056	51.7264
9.98873	58.3434
9.87458	50.9342
9.763	24.5544
9.65392	11.9038
9.54724	24.4526
9.44291	38.912
9.34082	36.2641
9.24091	35.0395
9.14312	45.4994
9.04739	43.9389
8.95363	49.1249
8.8618	44.2247
8.77183	37.7875
8.68368	30.6537
8.59727	22.6757
8.51257	14.4926
8.42951	7.6875
8.34807	3.2908
8.26819	1.4748
8.18981	1.2583
8.11292	1.7173
8.03745	2.272
7.96337	2.7666
7.89064	3.1948
7.81924	3.5513
7.74911	3.8564
7.68023	4.123
7.61256	4.3852
7.54608	4.637
7.48074	4.8628
7.41653	5.0764
7.35341	5.2795
7.29136	5.4543
7.23034	5.6135
7.17033	5.7519
7.11132	5.8911
7.05327	6.0183
6.99616	6.167
6.93996	6.2883
6.88467	6.3974
6.83024	6.5139
6.77667	6.6094
6.72393	6.7051
6.67201	6.789
6.62089	6.8779
6.57054	6.9573
6.52095	7.0722
6.4721	7.1699
6.42398	7.2549
6.37657	7.3679
6.32986	7.4665
6.28382	7.5552
6.23845	7.6672
6.19373	7.812
6.14965	7.8735
6.10619	7.1855
6.06334	7.1726
6.02109	7.3508
5.97942	7.4682
5.93832	7.5351
5.89778	7.6033
5.8578	7.6797
5.81835	7.7251
5.77943	7.7878
5.74103	7.8327
5.70314	7.8782
5.66574	7.9228
5.62883	7.9663
5.5924	8.0119
5.55644	8.0552
5.52093	8.0967
5.48588	8.1323
5.45127	8.1675
5.41709	8.206
5.38334	8.2629
5.35	8.311
5.31708	8.3728
5.28456	8.4372
5.25243	8.4917
5.2207	8.5229
5.18934	8.5476
5.15836	8.5798
5.12775	8.5947
5.09749	8.6084
5.0676	8.6098
5.03805	8.6089
5.00884	8.6435
4.97998	8.6877
4.95144	8.7285
4.92322	8.7573
4.89533	8.7761
4.86775	8.7993
4.84048	8.8254
4.81351	8.8491
4.78684	8.8725
4.76047	8.8882
4.73439	8.8869
4.70859	8.8681
4.68306	8.8154
4.65782	8.7532
4.63284	8.7468
4.60814	8.7986
4.58369	8.862
4.5595	8.9089
4.53557	8.9468
4.51188	8.9922
4.48845	9.0386
4.46525	9.1003
4.44229	9.1731
4.41957	9.2402
4.39708	9.292
4.37481	9.3301
4.35277	9.3716
4.33096	9.4067
4.30935	9.4306
4.28797	9.4565
4.26679	9.5141
4.24583	9.562
4.22506	9.6089
4.2045	9.6833
4.18414	9.7358
4.16398	9.8044
4.14401	9.8969
4.12423	9.9824
4.10464	10.0451
4.08523	10.083
4.066	10.0891
4.04696	10.0649
4.02809	10.1245
4.0094	10.1704
3.99088	10.2138
3.97253	10.2602
3.95435	10.301
3.93634	10.3337
3.91848	10.3535
3.90079	10.3611
3.88326	10.3532
3.86589	10.3286
3.84867	10.2929
3.8316	10.2529
3.81468	10.2732
3.79791	10.2632
3.78129	10.2527
3.76482	10.2478
3.74848	10.2319
3.73229	10.2082
3.71624	10.1816
3.70032	10.1626
3.68454	10.1555
3.6689	10.1635
3.65338	10.185
3.638	10.2138
3.62275	10.2412
3.60762	10.2539
3.59262	10.2441
3.57775	10.2246
3.56299	10.1968
3.54836	10.1706
3.53385	10.1509
3.51945	10.1357
3.50517	10.1223
3.49101	10.0923
3.47696	10.0703
3.46303	10.0547
3.4492	10.0464
3.43549	10.0417
3.42188	10.0439
3.40838	10.0219
3.39499	10.0053
3.38171	9.9975
3.36852	10.0127
3.35544	10.0151
3.34246	9.9824
3.32958	9.9782
3.3168	9.9917
3.30411	10.009
3.29153	10.0259
3.27903	10.0429
3.26664	10.0625
3.25433	10.0761
3.24212	10.0957
3.23	10.1228
3.21797	10.1509
3.20603	10.1845
3.19418	10.2212
3.18241	10.2524
3.17074	10.2632
3.15914	10.2383
3.14763	10.1653
3.13621	10.0898
3.12487	10.0722
3.11361	10.0727
3.10243	10.0559
3.09133	10.0598
3.0803	10.1245
3.06936	10.2217
3.0585	10.3271
3.04771	10.4658
3.037	10.625
3.02636	10.7695
3.0158	10.6382
3.00531	9.8271
2.99489	9.1313
2.98454	9.0576
2.97427	9.1821
2.96407	9.2993
2.95393	9.3696
2.94387	9.3984
2.93387	9.4262
2.92394	9.476
2.91408	9.5371
2.90429	9.5998
2.89456	9.6548
2.88489	9.6819
2.87529	9.7351
2.86576	9.8755
2.85628	10.125
2.84687	10.4695
2.83752	10.834
2.82823	10.3928
2.81901	8.143
2.80984	7.6555
2.80073	7.9836
2.79168	8.2685
2.78269	8.4726
2.77376	8.6145
2.76488	8.7126
2.75606	8.7759
2.7473	8.8667
2.73859	8.9292
2.72994	9.032
2.72134	9.1399
2.7128	9.3137
2.70431	9.4895
2.69587	9.6167
2.68748	9.7021
2.67915	9.7239
2.67087	9.7375
2.66264	9.8457
2.65446	9.9126
2.64633	9.9404
2.63825	9.9826
2.63021	10.0425
2.62223	10.1504
2.6143	10.1992
2.60641	10.1584
2.59857	10.0942
2.59078	10.001
2.58304	10.0049
2.57534	10.1562
2.56768	10.3498
2.56008	10.5468
2.55251	10.7405
2.54499	10.895
2.53752	10.9905
2.53009	11.0481
2.5227	11.0969
2.51536	11.1352
2.50806	11.1809
2.5008	11.1994
2.49358	11.1408
2.4864	11.0019
2.47927	10.8154
2.47218	10.6259
2.46512	10.5005
2.45811	10.5122
2.45114	10.549
2.4442	10.4873
2.43731	10.3645
2.43045	10.3069
2.42363	10.3918
2.41685	10.5891
2.41011	10.8442
2.40341	11.1128
2.39674	11.3252
2.39011	11.4465
2.38352	11.5107
2.37696	11.5852
2.37044	11.6926
2.36395	11.8257
2.35751	11.9336
2.35109	12.0129
2.34471	12.0871
2.33836	12.1992
2.33205	12.3166
2.32578	12.4189
2.31953	12.511
2.31332	12.6028
2.30714	12.6718
2.301	12.6985
2.29489	12.6819
2.28881	12.6347
2.28276	12.5703
2.27675	12.5266
2.27076	12.5556
2.26481	12.6245
2.25889	12.6884
2.253	12.7197
2.24714	12.7133
2.24131	12.6767
2.23551	12.6279
2.22974	12.5449
2.224	12.4282
2.21829	12.2778
2.21261	12.0986
2.20696	11.9077
2.20134	11.7934
2.19574	11.7793
2.19018	11.8662
2.18464	12.0078
2.17913	12.1152
2.17365	12.1548
2.16819	12.1533
2.16277	12.1631
2.15737	12.1875
2.15199	12.2265
2.14665	12.2622
2.14133	12.2949
2.13603	12.2973
2.13077	12.2783
2.12552	12.2314
2.12031	12.1787
2.11512	12.1025
2.10995	11.998
2.10481	11.8593
2.0997	11.7133
2.09461	11.5825
2.08954	11.4868
2.0845	11.4477
2.07948	11.4594
