Name: Olivine (Fo88) (Fe+2,Mg)2SiO4
Type: Mineral
Class: Silicates
Subclass: Nesosilicates (Isolated tetrahedra); (Olivine Group)
Particle Size: Fine  (0-60 Micrometers)
Sample No.: olivine.9
Owner: JHU
Wavelength Range: IR
Origin: South Point, Hawaii via Trude King #GSB
Description: Samples of olivine from an olivine sand beach were
Measurement: Bidirectional reflectance
X Units: Wavelength (micrometers)
Y Units: Reflectance (percent)
wavelength	value
25.0442	2.5254
24.3388	2.7402
23.6719	2.9914
23.0407	2.8057
22.4422	2.4609
21.8741	1.5874
21.334	1.6777
20.8199	1.3513
20.33	1.6186
19.8627	1.9976
19.4163	2.2236
18.9896	2.5349
18.5812	2.356
18.19	2.4658
17.815	2.3752
17.4551	2.0437
17.1094	1.6355
16.7772	1.3584
16.4576	1.4282
16.15	1.7075
15.8537	2.0078
15.568	2.165
15.2925	2.0049
15.0265	1.8977
14.7697	2.1164
14.5214	2.3049
14.2814	2.5967
14.0492	2.803
13.8244	3.0198
13.6067	3.1975
13.3957	3.1775
13.1912	3.2417
12.9929	3.3142
12.8004	3.1619
12.6135	2.8542
12.432	2.4836
12.2557	2.1296
12.0843	1.7095
11.9176	1.4123
11.7555	1.5466
11.5977	1.6558
11.444	1.9761
11.2944	2.1704
11.1487	2.2788
11.0067	2.4072
10.8682	2.5447
10.7332	2.7751
10.6015	2.9895
10.473	2.9148
10.3476	2.4123
10.2251	2.1843
10.1056	2.6326
9.98873	2.7261
9.87458	2.8777
9.763	3.032
9.65392	3.2795
9.54724	3.6135
9.44291	4.0474
9.34082	4.5408
9.24091	4.4836
9.14312	4.0261
9.04739	3.5398
8.95363	3.1875
8.8618	3.2634
8.77183	3.5852
8.68368	3.9431
8.59727	4.3154
8.51257	4.6389
8.42951	4.8911
8.34807	5.1887
8.26819	5.4287
8.18981	5.6633
8.11292	6.0117
8.03745	6.2917
7.96337	6.4953
7.89064	6.5847
7.81924	6.5972
7.74911	6.676
7.68023	6.7305
7.61256	6.6836
7.54608	6.6496
7.48074	6.7861
7.41653	6.9848
7.35341	7.1474
7.29136	7.2998
7.23034	7.2959
7.17033	7.3569
7.11132	7.3967
7.05327	7.3806
6.99616	7.5469
6.93996	7.7412
6.88467	7.8386
6.83024	7.8186
6.77667	7.9341
6.72393	8.1279
6.67201	8.2827
6.62089	8.3708
6.57054	8.4013
6.52095	8.3869
6.4721	8.4031
6.42398	8.4206
6.37657	8.3796
6.32986	8.3137
6.28382	8.2309
6.23845	8.2488
6.19373	8.2805
6.14965	8.2456
6.10619	8.093
6.06334	7.5698
6.02109	6.6557
5.97942	6.542
5.93832	6.7781
5.89778	6.8337
5.8578	6.8843
5.81835	7.0029
5.77943	7.1096
5.74103	7.0288
5.70314	6.6172
5.66574	6.0945
5.62883	5.8215
5.5924	6.1267
5.55644	6.6985
5.52093	6.8684
5.48588	6.843
5.45127	6.832
5.41709	6.9966
5.38334	7.2348
5.35	7.4297
5.31708	7.5454
5.28456	7.5886
5.25243	7.5596
5.2207	7.5652
5.18934	7.7583
5.15836	7.9514
5.12775	8.1291
5.09749	8.2768
5.0676	8.3613
5.03805	8.3708
5.00884	8.3125
4.97998	8.1709
4.95144	8.0425
4.92322	8.2827
4.89533	8.7429
4.86775	9.2815
4.84048	9.5766
4.81351	9.7104
4.78684	9.7978
4.76047	9.8662
4.73439	9.8996
4.70859	9.9372
4.68306	9.9624
4.65782	9.9941
4.63284	10.0324
4.60814	10.0666
4.58369	10.0847
4.5595	10.1137
4.53557	10.1257
4.51188	10.1631
4.48845	10.1911
4.46525	10.2143
4.44229	10.2478
4.41957	10.2915
4.39708	10.331
4.37481	10.3486
4.35277	10.373
4.33096	10.3928
4.30935	10.4052
4.28797	10.4468
4.26679	10.4826
4.24583	10.5024
4.22506	10.5298
4.2045	10.5576
4.18414	10.571
4.16398	10.5754
4.14401	10.6084
4.12423	10.6159
4.10464	10.6286
4.08523	10.6382
4.066	10.6621
4.04696	10.6545
4.02809	10.6372
4.0094	10.6323
3.99088	10.6501
3.97253	10.6587
3.95435	10.6755
3.93634	10.687
3.91848	10.6919
3.90079	10.7009
3.88326	10.6946
3.86589	10.6714
3.84867	10.6675
3.8316	10.6548
3.81468	10.6423
3.79791	10.6357
3.78129	10.666
3.76482	10.6628
3.74848	10.6526
3.73229	10.6447
3.71624	10.6352
3.70032	10.6311
3.68454	10.6225
3.6689	10.6135
3.65338	10.6076
3.638	10.5918
3.62275	10.5949
3.60762	10.582
3.59262	10.5378
3.57775	10.5241
3.56299	10.498
3.54836	10.456
3.53385	10.3794
3.51945	10.2077
3.50517	9.7463
3.49101	9.9033
3.47696	9.978
3.46303	10.0019
3.4492	9.8432
3.43549	9.6062
3.42188	9.1308
3.40838	9.2556
3.39499	9.6262
3.38171	9.5896
3.36852	9.7297
3.35544	9.9441
3.34246	10.0173
3.32958	10.0237
3.3168	10.0215
3.30411	10.0007
3.29153	9.9743
3.27903	9.9511
3.26664	9.9294
3.25433	9.9028
3.24212	9.8508
3.23	9.8196
3.21797	9.7883
3.20603	9.7688
3.19418	9.7292
3.18241	9.6709
3.17074	9.6289
3.15914	9.5974
3.14763	9.539
3.13621	9.4985
3.12487	9.4643
3.11361	9.4353
3.10243	9.3838
3.09133	9.3552
3.0803	9.3303
3.06936	9.2788
3.0585	9.2585
3.04771	9.2126
3.037	9.1802
3.02636	9.1506
3.0158	9.1069
3.00531	9.0661
2.99489	9.0342
2.98454	9.0149
2.97427	8.9602
2.96407	8.9497
2.95393	8.9287
2.94387	8.9133
2.93387	8.9194
2.92394	8.884
2.91408	8.8857
2.90429	8.8579
2.89456	8.8584
2.88489	8.8513
2.87529	8.8511
2.86576	8.8594
2.85628	8.8808
2.84687	8.9126
2.83752	8.9402
2.82823	8.9609
2.81901	8.9927
2.80984	9.0027
2.80073	9.0527
2.79168	9.0591
2.78269	9.1255
2.77376	9.1811
2.76488	9.2314
2.75606	9.3047
2.7473	9.383
2.73859	9.4887
2.72994	9.5527
2.72134	9.6579
2.7128	9.7568
2.70431	9.8794
2.69587	10.0649
2.68748	10.1899
2.67915	10.2676
2.67087	10.2883
2.66264	10.3005
2.65446	10.2688
2.64633	10.2673
2.63825	10.2712
2.63021	10.2602
2.62223	10.2373
2.6143	10.2339
2.60641	10.2136
2.59857	10.23
2.59078	10.2116
2.58304	10.2248
2.57534	10.1848
2.56768	10.1587
2.56008	10.1616
2.55251	10.0906
2.54499	10.1118
2.53752	10.0993
2.53009	10.063
2.5227	10.0774
2.51536	10.0508
2.50806	10.0427
2.5008	10.0385
2.49358	10.0415
2.4864	10.001
2.47927	9.998
2.47218	9.9773
2.46512	10.0166
2.45811	9.9836
2.45114	9.9721
2.4442	9.9619
2.43731	9.9563
2.43045	9.9082
2.42363	9.8869
2.41685	9.9199
2.41011	9.9072
2.40341	9.8867
2.39674	9.8833
2.39011	9.8926
2.38352	9.8769
2.37696	9.8286
2.37044	9.8467
2.36395	9.8384
2.35751	9.855
2.35109	9.8569
2.34471	9.8227
2.33836	9.8115
2.33205	9.8237
2.32578	9.8237
2.31953	9.8047
2.31332	9.8056
2.30714	9.8042
2.301	9.831
2.29489	9.8325
2.28881	9.8188
2.28276	9.8144
2.27675	9.8467
2.27076	9.8398
2.26481	9.8042
2.25889	9.8508
2.253	9.8344
2.24714	9.843
2.24131	9.8464
2.23551	9.8491
2.22974	9.81
2.224	9.8227
2.21829	9.8264
2.21261	9.8254
2.20696	9.8095
2.20134	9.854
2.19574	9.851
2.19018	9.8789
2.18464	9.873
2.17913	9.8908
2.17365	9.8476
2.16819	9.8994
2.16277	9.8801
2.15737	9.8772
2.15199	9.8889
2.14665	9.8833
2.14133	9.9096
2.13603	9.9299
2.13077	9.9223
2.12552	9.9682
2.12031	9.9641
2.11512	9.9514
2.10995	9.9736
2.10481	9.9541
2.0997	10.0259
2.09461	9.9992
2.08954	10.0324
2.0845	10.0483
2.07948	10.0527
