Name: Alunite (sodium alunite) NaAl3(SO4)2(OH)6
Type: Mineral
Class: Sulfates
Particle Size: Fine (less than 2 Micrometers)
Sample No.: alunite.4
Owner: JHU
Wavelength Range: IR
Origin: Synthetic; Synthesized by Roger Stoffregen and supplied by
Description: The sample was a white, microcrystalline powder
Measurement: Transmission
X Units: Wavelength (micrometers)
Y Units: Transmittance (percent)
wavelength	value
25.044	91.8435
24.339	88.281
23.672	79.8982
23.041	61.7205
22.442	61.0409
21.874	84.5037
21.334	88.6287
20.82	88.3865
20.33	86.0584
19.863	86.4383
19.416	74.6326
18.99	69.7889
18.581	73.7195
18.19	82.0164
17.815	79.8562
17.455	74.283
17.109	61.6297
16.777	31.8573
16.458	24.0361
16.15	41.2548
15.854	18.5117
15.568	27.2392
15.292	48.4608
15.027	40.6161
14.77	34.3778
14.521	37.0605
14.281	39.3734
14.049	42.0141
13.824	53.119
13.607	67.2874
13.396	76.4471
13.191	82.1892
12.993	85.8201
12.8	88.1912
12.614	89.4422
12.432	90.45
12.256	90.9548
12.084	91.6604
11.918	92.1331
11.755	92.303
11.598	92.4783
11.444	92.367
11.294	92.3093
11.149	92.1179
11.007	92.2087
10.868	92.2517
10.733	92.1589
10.602	91.9295
10.473	91.8142
10.348	91.2942
10.225	90.3142
10.106	88.9988
9.989	87.4685
9.875	84.7615
9.763	72.3758
9.654	76.471
9.547	74.782
9.443	66.8211
9.341	51.5292
9.241	27.4081
9.143	6.959
9.047	7.3457
8.954	14.4985
8.862	25.6318
8.772	37.5941
8.684	46.2123
8.597	50.1854
8.513	52.0135
8.43	50.4354
8.348	45.3087
8.268	39.4103
8.19	36.4472
8.113	40.5226
8.037	53.4159
7.963	67.3201
7.891	77.1534
7.819	82.7508
7.749	86.3201
7.68	88.9658
7.613	90.4561
7.546	91.7666
7.481	92.6956
7.417	93.4407
7.353	93.8914
7.291	94.1668
7.23	94.1609
7.17	93.9641
7.111	94.0938
7.053	94.7969
6.996	95.1516
6.94	95.2288
6.885	95.2813
6.83	95.2957
6.777	95.3518
6.724	95.4336
6.672	95.3184
6.621	95.1433
6.571	95.0623
6.521	95.3235
6.472	95.4697
6.424	95.3972
6.377	95.3613
6.33	95.1475
6.284	94.7617
6.238	94.1572
6.194	93.1902
6.15	92.5596
6.106	92.0254
6.063	92.5342
6.021	93.4395
5.979	94.1318
5.938	94.6541
5.898	95.3723
5.858	96.1348
5.818	96.3313
5.779	96.8259
5.741	97.0803
5.703	97.2117
5.666	97.4326
5.629	97.5234
5.592	97.5955
5.556	97.6736
5.521	97.7507
5.486	97.7959
5.451	97.8779
5.417	97.9275
5.383	98.0359
5.35	98.0085
5.317	98.1277
5.285	98.1433
5.252	98.2126
5.221	98.1785
5.189	98.2424
5.158	98.2253
5.128	98.2422
5.097	98.2449
5.068	98.2578
5.038	98.2273
5.009	98.2285
4.98	98.2256
4.951	98.2285
4.923	98.2703
4.895	98.2165
4.868	98.3152
4.84	98.1077
4.814	98.0173
4.787	98.1096
4.76	98.0593
4.734	97.5915
4.709	97.2004
4.683	96.3665
4.658	96.0959
4.633	96.2913
4.608	95.6028
4.584	95.8162
4.56	95.6057
4.536	95.3831
4.512	95.2322
4.488	95.3503
4.465	95.3694
4.442	95.6951
4.42	95.8811
4.397	95.9172
4.375	96.156
4.353	96.3337
4.331	96.0271
4.309	96.1775
4.288	96.4241
4.267	96.9138
4.246	97.2214
4.225	97.405
4.205	97.614
4.184	97.6892
4.164	97.6843
4.144	97.6521
4.124	97.6814
4.105	97.7131
4.085	97.7273
4.066	97.6975
4.047	97.7292
4.028	97.7078
4.009	97.676
3.991	97.6077
3.973	97.6951
3.954	97.6272
3.936	97.6238
3.918	97.655
3.901	97.5984
3.883	97.6858
3.866	97.739
3.849	97.6531
3.832	97.6697
3.815	97.6179
3.798	97.7034
3.781	97.6697
3.765	97.6189
3.748	97.4866
3.732	97.5159
3.716	97.4319
3.7	97.3206
3.685	97.2209
3.669	97.072
3.653	97.0276
3.638	96.8181
3.623	96.6975
3.608	96.6365
3.593	96.448
3.578	96.3474
3.563	96.1042
3.548	95.99
3.534	95.7795
3.519	95.5193
3.505	95.2732
3.491	95.1687
3.477	94.9802
3.463	94.7366
3.449	94.5564
3.435	94.2253
3.422	93.8884
3.408	93.6443
3.395	93.4314
3.382	93.115
3.369	92.9509
3.355	92.5901
3.342	92.4314
3.33	92.2503
3.317	92.0056
3.304	91.7537
3.292	91.5569
3.279	91.2815
3.267	91.0935
3.254	90.8025
3.242	90.3699
3.23	90.3025
3.218	89.9812
3.206	89.7273
3.194	89.5886
3.182	89.241
3.171	88.9685
3.159	88.4988
3.148	88.2937
3.136	87.8318
3.125	87.033
3.114	87.1228
3.102	86.8943
3.091	86.6414
3.08	86.6531
3.069	86.572
3.058	86.0593
3.048	85.4744
3.037	84.7459
3.026	84.1922
3.016	82.2381
3.005	80.5877
2.995	79.0135
2.985	77.1961
2.974	74.3338
2.964	72.9969
2.954	71.4783
2.944	67.7264
2.934	63.0125
2.924	55.9295
2.914	39.8368
2.904	15.2011
2.895	5.5908
2.885	22.2587
2.875	28.414
2.866	16.9707
2.856	42.8729
2.847	59.2381
2.838	66.8328
2.828	70.9608
2.819	75.0604
2.81	78.3602
2.801	80.3641
2.792	82.6805
2.783	85.5545
2.774	87.8865
2.765	89.532
2.756	91.2107
2.747	92.8435
2.739	93.8835
2.73	95.1384
2.721	95.8406
2.713	96.6531
2.704	96.7771
2.696	97.1208
2.687	97.7537
2.679	97.9499
2.671	98.1247
2.663	98.1492
2.654	98.529
2.646	98.4509
2.638	98.6814
2.63	98.8904
2.622	98.7712
2.614	98.8865
2.606	98.9021
2.599	99.2185
2.591	99.3279
2.583	99.1482
2.575	99.2947
2.568	98.9802
2.56	99.3279
2.553	99.3708
2.545	99.3396
2.538	99.4255
2.53	99.2107
2.523	99.2029
2.515	99.5642
2.508	99.7732
2.501	99.7048
2.494	99.4919
2.486	99.6833
2.479	99.8396
2.472	99.8747
2.465	99.7595
2.458	100.015
2.451	99.8904
2.444	100.019
2.437	100.011
2.43	100.189
2.424	100.431
2.417	100.127
2.41	100.406
2.403	100.601
2.397	100.478
2.39	100.465
2.384	100.601
2.377	100.478
2.37	100.65
2.364	100.523
2.358	100.783
2.351	100.828
2.345	100.789
2.338	100.461
2.332	100.697
2.326	100.746
2.32	100.463
2.313	101.056
2.307	101.088
2.301	100.992
2.295	100.797
2.289	100.961
2.283	100.773
2.277	100.969
2.271	101.05
2.265	100.894
2.259	101.117
2.253	101.101
2.247	100.883
2.241	101.324
2.236	100.969
2.23	100.82
2.224	100.859
2.218	101.047
2.213	100.535
2.207	100.469
2.201	101.109
2.196	101.234
2.19	100.664
2.185	100.765
2.179	100.804
2.174	100.672
2.168	100.761
2.163	101.207
2.157	101.078
2.152	100.617
2.147	100.66
2.141	100.515
2.136	100.726
2.131	100.429
2.126	101.187
2.12	100.969
2.115	100.179
2.11	100.488
2.105	101.285
2.1	100.894
2.095	100.972
2.09	100.328
2.085	101.347
2.079	100.633
