Name: 12070.405
Type: Soil
Class: Lunar
Subclass: Maria
Particle Size: Fine
Sample No.: 12070.405
Owner: JHU
Origin: Apollo 12 landing site via the NASA Lunar Sample Repository at Johnson
Description: This is an extra sample from the Apollo 12 mare site.  This sample
Measurement: Directional (10 degree) hemispherical reflectance
X Units: Wavelength (micrometers)
Y Units: Reflectance (percent)
wavelength	value
14.011	1.3461
13.788	1.333
13.571	1.4377
13.361	1.5084
13.158	1.5227
12.96	1.6643
12.769	1.7793
12.583	1.9791
12.402	2.1523
12.227	2.278
12.056	2.226
11.89	2.1932
11.729	2.2569
11.572	2.3131
11.419	2.4259
11.27	2.3729
11.125	2.2989
10.983	2.3031
10.846	2.3253
10.711	2.2802
10.58	2.1667
10.452	2.1092
10.327	2.0299
10.205	1.9261
10.086	1.9067
9.97	1.8692
9.856	1.8671
9.745	1.8462
9.636	1.8057
9.53	1.8123
9.426	1.7992
9.324	1.745
9.225	1.7258
9.127	1.6689
9.032	1.5496
8.938	1.3308
8.847	1.1135
8.757	1.0039
8.669	0.9726
8.583	0.8626
8.499	0.836
8.416	0.7954
8.335	0.8094
8.255	0.8803
8.177	1.0312
8.1	1.2678
8.025	1.7004
7.951	2.2802
7.879	2.917
7.808	3.5704
7.737	4.1848
7.669	4.8436
7.601	5.4359
7.535	6.0249
7.47	6.6019
7.406	7.1578
7.343	7.6679
7.281	8.1534
7.22	8.5665
7.16	8.9706
7.102	9.3498
7.044	9.7092
6.987	10.066
6.931	10.372
6.875	10.632
6.821	10.811
6.768	11.039
6.715	11.142
6.663	11.182
6.612	11.238
6.562	11.28
6.513	11.376
6.464	11.454
6.416	11.481
6.369	11.559
6.322	11.575
6.276	11.611
6.231	11.639
6.186	11.704
6.142	11.864
6.099	12
6.056	12.057
6.014	12.227
5.973	12.493
5.931	12.757
5.891	13.127
5.851	13.428
5.812	13.697
5.773	13.925
5.735	14.108
5.697	14.162
5.66	14.248
5.623	14.42
5.586	14.595
5.551	14.785
5.515	14.863
5.48	14.885
5.446	14.866
5.411	14.869
5.378	14.874
5.345	14.824
5.312	14.885
5.279	15.011
5.247	15.2
5.215	15.417
5.184	15.689
5.153	15.907
5.123	16.191
5.093	16.44
5.063	16.677
5.033	16.957
5.004	17.277
4.975	17.567
4.947	17.916
4.919	18.28
4.891	18.56
4.863	18.848
4.836	19.125
4.809	19.382
4.782	19.593
4.756	19.837
4.73	20.092
4.704	20.326
4.679	20.547
4.654	20.755
4.629	20.953
4.604	21.114
4.58	21.257
4.556	21.354
4.532	21.463
4.508	21.527
4.485	21.591
4.461	21.614
4.439	21.663
4.416	21.681
4.393	21.684
4.371	21.717
4.349	21.771
4.327	21.78
4.306	21.818
4.284	21.854
4.263	21.85
4.242	21.869
4.222	21.881
4.201	21.846
4.181	21.836
4.161	21.808
4.141	21.839
4.121	21.804
4.101	21.797
4.082	21.806
4.063	21.774
4.044	21.756
4.025	21.775
4.006	21.713
3.988	21.725
3.97	21.67
3.951	21.686
3.933	21.656
3.916	21.61
3.898	21.575
3.88	21.552
3.863	21.516
3.846	21.462
3.829	21.428
3.812	21.424
3.795	21.353
3.779	21.324
3.762	21.268
3.746	21.225
3.73	21.178
3.714	21.154
3.698	21.108
3.682	21.042
3.666	21
3.651	20.967
3.636	20.911
3.62	20.883
3.605	20.809
3.59	20.781
3.575	20.73
3.561	20.685
3.546	20.642
3.531	20.557
3.517	20.528
3.503	20.376
3.489	20.363
3.475	20.324
3.461	20.281
3.447	20.221
3.433	20.114
3.42	19.927
3.406	19.937
3.393	20.01
3.38	19.886
3.366	19.849
3.353	19.906
3.34	19.856
3.327	19.823
3.315	19.78
3.302	19.729
3.289	19.695
3.277	19.636
3.265	19.553
3.252	19.507
3.24	19.437
3.228	19.369
3.216	19.356
3.204	19.253
3.192	19.173
3.18	19.165
3.169	19.124
3.157	19.059
3.146	18.985
3.134	18.953
3.123	18.921
3.112	18.868
3.101	18.817
3.09	18.771
3.079	18.705
3.067	18.621
3.057	18.592
3.046	18.533
3.035	18.545
3.025	18.475
3.014	18.389
3.004	18.345
2.993	18.3
2.983	18.281
2.973	18.209
2.962	18.18
2.952	18.147
2.942	18.108
2.932	18.04
2.922	18.013
2.912	17.988
2.903	17.899
2.893	17.906
2.883	17.898
2.874	17.85
2.864	17.825
2.855	17.768
2.845	17.75
2.836	17.731
2.827	17.676
2.817	17.706
2.808	17.66
2.799	17.756
2.79	17.759
2.781	17.784
2.772	17.839
2.763	17.934
2.755	18.029
2.746	18.126
2.737	18.146
2.728	18.256
2.72	18.262
2.711	18.281
2.703	18.319
2.695	18.275
2.686	18.248
2.678	18.199
2.67	18.119
2.661	18.171
2.653	18.077
2.645	18.029
2.637	17.997
2.629	17.911
2.621	17.904
2.613	17.858
2.605	17.723
2.597	17.749
2.59	17.684
2.582	17.613
2.574	17.553
2.566	17.508
2.559	17.449
2.551	17.41
2.544	17.356
2.536	17.305
2.529	17.226
2.522	17.167
2.514	17.114
2.507	17.042
2.5	17
2.492	16.937
2.485	16.89
2.478	16.82
2.471	16.781
2.464	16.722
2.457	16.653
2.45	16.641
2.443	16.541
2.436	16.486
2.429	16.433
2.422	16.396
2.416	16.318
2.409	16.26
2.402	16.214
2.396	16.2
2.389	16.151
2.382	16.128
2.376	16.062
2.369	16
2.363	15.919
2.356	15.911
2.35	15.9
2.344	15.836
2.337	15.782
2.331	15.734
2.325	15.667
2.318	15.672
2.312	15.618
2.306	15.588
2.3	15.506
2.294	15.51
2.288	15.437
2.282	15.398
2.276	15.369
2.27	15.357
2.264	15.305
2.258	15.274
2.252	15.23
2.246	15.158
2.24	15.116
2.235	15.109
2.229	15.065
2.223	15.036
2.217	14.969
2.212	14.987
2.206	14.918
2.2	14.929
2.195	14.874
2.189	14.85
2.184	14.817
2.178	14.798
2.173	14.778
2.167	14.728
2.162	14.788
2.156	14.678
2.151	14.609
2.146	14.594
2.14	14.573
2.135	14.597
2.13	14.619
2.125	14.533
2.119	14.558
2.114	14.513
2.109	14.486
2.104	14.443
2.099	14.38
2.094	14.386
2.089	14.423
2.084	14.319
