Name: Dolomitic Marble
Type: Rocks
Class: Metamorphic
Subclass: Marble
Particle Size: 500 - 1500 Micrometer
Owner: JHU
Wavelength Range: All
Origin: Sample No. 459, The Hunt and Salisbury Collection at the U.S.
Description: A medium-grained rock containing anhedral and some euhedral
Measurement: Directional (10 Degree) Hemispherical Reflectance
X Units: Wavelength (micrometers)
Y Units: Reflectance (percent)
wavelength	value
14.983	4.31
14.645	4.185
14.321	3.2671
14.011	2.46
13.715	2.6142
13.43	4.7676
13.158	4.6359
12.896	4.0053
12.644	4.204
12.402	4.5909
12.169	4.6953
11.945	4.625
11.729	3.9922
11.52	4.8926
11.319	12.7374
11.125	5.9872
10.937	4.9641
10.756	4.2158
10.58	4.1199
10.41	4.6011
10.245	4.5369
10.086	4.374
9.931	4.3863
9.781	4.719
9.636	5.3177
9.495	5.6265
9.358	5.4835
9.225	4.9241
9.095	5.6206
8.969	5.5166
8.847	5.1872
8.727	4.7974
8.612	4.3531
8.499	4.364
8.389	4.4536
8.281	4.6608
8.177	4.7891
8.075	4.7673
7.976	4.8623
7.879	4.9412
7.784	5.1143
7.692	5.2898
7.601	5.4326
7.513	5.7698
7.427	6.1579
7.343	6.6384
7.261	7.1985
7.18	8.6935
7.102	11.8017
7.025	13.4092
6.949	13.7275
6.875	14.7723
6.803	16.144
6.733	18.0806
6.663	20.8703
6.596	23.9238
6.529	26.9809
6.464	27.3349
6.4	14.6707
6.338	6.1565
6.276	2.4994
6.216	1.3181
6.157	0.9646
6.099	0.8798
6.042	0.9089
5.986	1.0036
5.931	1.0827
5.878	1.1516
5.825	1.2475
5.773	1.2876
5.722	1.3425
5.672	1.4687
5.623	1.5744
5.574	1.2902
5.527	1.4855
5.48	2.012
5.434	2.905
5.389	4.1291
5.345	5.5602
5.301	7.0379
5.258	8.3802
5.215	9.5955
5.174	10.6461
5.133	11.3574
5.093	8.4771
5.053	12.3793
5.014	12.9908
4.975	12.9609
4.937	12.8986
4.9	13.0872
4.863	13.3185
4.827	13.4814
4.791	13.4483
4.756	12.2706
4.721	8.7807
4.687	5.1503
4.654	4.8808
4.62	7.2219
4.588	8.7501
4.556	9.2732
4.524	9.5093
4.492	10.2214
4.461	11.6547
4.431	12.9931
4.401	14.1651
4.371	14.5035
4.342	13.2605
4.313	12.9121
4.284	13.2586
4.256	13.086
4.229	12.6045
4.201	12.1716
4.174	11.2525
4.147	9.9967
4.121	8.4692
4.095	6.9925
4.069	5.4674
4.044	4.0403
4.019	3.0852
3.994	2.5756
3.97	2.3845
3.945	2.5687
3.921	2.816
3.898	2.9308
3.875	2.9737
3.852	3.0734
3.829	3.3164
3.806	4.0259
3.784	6.8582
3.762	9.2671
3.74	11.0718
3.719	12.5003
3.698	13.2472
3.677	13.5385
3.656	13.3562
3.636	12.803
3.615	12.0094
3.595	10.4602
3.575	7.7287
3.556	6.6323
3.536	5.0134
3.517	3.5584
3.498	3.112
3.479	2.8562
3.461	3.1388
3.442	3.2565
3.424	3.3254
3.406	3.3261
3.388	3.2837
3.371	3.2602
3.353	3.1328
3.336	3.8397
3.319	5.4693
3.302	6.8968
3.285	8.7927
3.269	10.2068
3.252	11.2817
3.236	12.152
3.22	12.9214
3.204	13.5596
3.188	13.8049
3.173	13.4282
3.157	11.8792
3.142	11.6037
3.127	11.9628
3.112	10.9632
3.097	11.3226
3.082	12.3987
3.067	13.0725
3.053	13.6065
3.039	14.0863
3.025	14.4372
3.011	14.7577
2.997	14.8725
2.983	14.8379
2.969	14.845
2.956	14.6916
2.942	14.7394
2.929	14.8559
2.916	14.9464
2.903	15.1313
2.89	15.321
2.877	15.614
2.864	15.8588
2.852	16.0431
2.839	16.1423
2.827	15.7802
2.814	15.1148
2.802	13.8054
2.79	11.832
2.778	12.8515
2.766	15.5936
2.755	17.5466
2.743	18.6182
2.731	19.5392
2.72	20.6473
2.708	22.0532
2.697	23.3484
2.686	24.4697
2.675	25.2164
2.664	25.5941
2.653	25.8042
2.642	25.8861
2.632	25.8591
2.621	25.8001
2.61	25.6455
2.6	25.3566
2.59	24.6615
2.579	23.8211
2.569	22.681
2.559	20.2712
2.549	16.445
2.539	13.6145
2.529	13.7356
2.519	15.2855
2.509	16.2266
2.5	16.7642
2.49	17.3444
2.481	18.3215
2.471	19.8127
2.462	21.42
2.452	22.6806
2.443	23.7029
2.434	24.4574
2.425	25.21
2.416	25.6945
2.407	25.9178
2.398	25.8792
2.389	25.9721
2.38	25.6988
2.372	24.9604
2.363	23.6839
2.354	21.3269
2.346	19.4431
2.337	18.8325
2.329	19.3317
2.321	20.316
2.312	20.9165
2.304	21.3305
2.296	21.8233
2.288	22.5188
2.28	23.3695
2.272	24.3238
2.264	24.9575
2.256	25.5941
2.248	26.0261
2.24	26.4282
2.233	26.7195
2.225	27.0122
2.217	27.2196
2.21	27.3823
2.202	27.5388
2.195	27.6061
2.187	27.6307
2.18	27.6265
2.173	27.5294
2.166	27.4285
2.158	27.3608
2.151	27.375
2.144	27.6478
2.137	27.7742
2.13	27.8609
2.123	27.9083
2.116	28.0456
2.109	28.1512
2.102	28.1683
2.095	28.2521
2.089	28.3047
2.082	28.4456
2.06	28.6104
2.028	28.7154
1.996	28.2241
1.964	28.5242
1.932	28.8906
1.9	28.842
1.868	28.3745
1.836	29.0082
1.804	29.3818
1.772	29.3251
1.74	29.4277
1.708	29.4553
1.676	29.7178
1.644	29.8308
1.612	29.793
1.58	29.6975
1.548	29.7326
1.516	29.9041
1.484	29.9151
1.452	29.7154
1.42	29.7894
1.388	30.1554
1.356	30.2903
1.324	30.081
1.292	30.132
1.26	30.2757
1.228	30.6996
1.196	30.7467
1.164	30.6786
1.132	30.8805
1.1	30.9939
1.068	31.0104
1.036	31.0536
1.004	31.4536
0.972	31.7872
0.94	32.0119
0.908	32.4757
0.876	33.0384
0.844	33.5594
0.812	34.2072
0.795	34.6125
0.787	34.7329
0.779	34.6107
0.771	34.8026
0.763	34.647
0.755	34.9197
0.747	34.9366
0.739	34.9554
0.731	34.7222
0.723	35.0809
0.715	35.2073
0.707	35.4047
0.699	35.4003
0.691	34.9633
0.683	34.883
0.675	35.076
0.667	35.1549
0.659	35.3499
0.651	34.9626
0.643	35.2981
0.635	35.4297
0.627	35.372
0.619	35.2841
0.611	35.4879
0.603	35.3059
0.595	35.9204
0.587	35.7592
0.579	35.642
0.571	36.2681
0.563	36.1587
0.555	36.4793
0.547	36.2084
0.539	36.4125
0.531	36.8136
0.523	36.3452
0.515	36.8081
0.507	36.6936
0.499	36.594
0.491	36.5438
0.483	36.8257
0.475	36.9751
0.467	36.7254
0.459	36.8918
0.451	36.4796
0.443	36.5238
0.435	36.7145
0.427	36.4957
0.419	36.5191
0.411	36.3326
0.403	35.9703
