Name: Acmite NaFe+3 Si2O6
Type: Mineral
Class: Silicates
Subclass: Inosilicates (Pyroxene Group - single chain)
Particle Size: Fine (less than 75 Micrometers)
Sample No.: acmite.1
Owner: JHU.
Wavelength Range: IR
Origin: Narsarsuk, Greenland via the Smithsonian (sample no. NMNH
Description: The sample consisted of black radiating acicular crystals
Measurement: Bidirectional reflectance
X Units: Wavelength (micrometers)
Y Units: Reflectance (percent)
wavelength	value
25.044	2.0918
24.339	1.8196
23.672	2.0591
23.041	2.3745
22.442	3.0203
21.874	3.2996
21.334	3.2932
20.82	3.1548
20.33	3.4333
19.863	3.3765
19.416	2.9719
18.99	2.7849
18.581	2.5378
18.19	2.3701
17.815	2.657
17.455	2.6394
17.109	2.3926
16.777	1.7163
16.458	1.2519
16.15	1.2419
15.854	1.2886
15.568	1.3433
15.292	1.4031
15.027	1.5049
14.77	1.9299
14.521	2.2278
14.281	2.459
14.049	2.459
13.824	2.2605
13.607	1.835
13.396	2.6013
13.191	3.1025
12.993	3.2798
12.8	3.209
12.614	3.0203
12.432	2.7468
12.256	2.3806
12.084	2.1023
11.918	1.9656
11.755	1.8169
11.598	1.6521
11.444	1.6145
11.294	1.6753
11.149	1.7793
11.007	1.8735
10.868	2.0247
10.733	2.2561
10.602	2.5525
10.473	2.7063
10.348	2.7593
10.225	2.8953
10.106	3.1863
9.989	3.6929
9.875	3.8603
9.763	3.5149
9.654	3.6462
9.547	3.7515
9.443	3.7771
9.341	3.7217
9.241	3.5056
9.143	3.283
9.047	2.9241
8.954	2.6924
8.862	2.7537
8.772	3.0427
8.684	3.4573
8.597	2.9343
8.513	2.1641
8.43	1.5789
8.348	1.3235
8.268	1.3499
8.19	1.5598
8.113	1.8584
8.037	2.1724
7.963	2.4319
7.891	2.6894
7.819	2.9629
7.749	3.1875
7.68	3.3428
7.613	3.5032
7.546	3.604
7.481	3.5681
7.417	3.7241
7.353	3.978
7.291	4.249
7.23	4.4944
7.17	4.7251
7.111	4.8779
7.053	4.8916
6.996	5.0432
6.94	5.2124
6.885	5.3015
6.83	5.3032
6.777	5.3284
6.724	5.4634
6.672	5.5701
6.621	5.6794
6.571	5.8747
6.521	6.051
6.472	6.0578
6.424	5.824
6.377	5.5747
6.33	5.3694
6.284	5.1946
6.238	4.9001
6.194	4.8142
6.15	5.1133
6.106	5.3972
6.063	5.4892
6.021	5.4084
5.979	5.2466
5.938	4.9072
5.898	4.8042
5.858	4.9851
5.818	4.8269
5.779	4.6194
5.741	4.6711
5.703	4.7807
5.666	4.7617
5.629	4.8022
5.592	5.2637
5.556	6.0073
5.521	6.5959
5.486	6.7156
5.451	6.7097
5.417	6.7358
5.383	6.7771
5.35	6.7146
5.317	6.6311
5.285	6.5747
5.252	6.488
5.221	6.3723
5.189	6.4997
5.158	6.7978
5.128	6.9104
5.097	7.134
5.068	7.4292
5.038	7.6452
5.009	7.8274
4.98	8.02
4.951	8.1819
4.923	8.3122
4.895	8.4841
4.868	8.6382
4.84	8.6946
4.814	8.7365
4.787	8.833
4.76	9.0229
4.734	9.1936
4.709	9.4477
4.683	9.8904
4.658	10.3767
4.633	10.8352
4.608	11.2981
4.584	11.6067
4.56	11.8156
4.536	11.9934
4.512	12.1169
4.488	12.2112
4.465	12.2888
4.442	12.3391
4.42	12.3913
4.397	12.4331
4.375	12.4455
4.353	12.4692
4.331	12.4843
4.309	12.4902
4.288	12.4809
4.267	12.4206
4.246	12.5383
4.225	12.5703
4.205	12.6294
4.184	12.6565
4.164	12.6687
4.144	12.684
4.124	12.7102
4.105	12.7475
4.085	12.8054
4.066	12.8564
4.047	12.9062
4.028	12.9646
4.009	13.0009
3.991	13.0156
3.973	13.0376
3.954	13.0654
3.936	13.101
3.918	13.1125
3.901	13.1123
3.883	13.0935
3.866	13.0673
3.849	13.0368
3.832	13.0261
3.815	13.0251
3.798	13.0078
3.781	13.0151
3.765	13.0168
3.748	12.9992
3.732	12.9983
3.716	12.979
3.7	12.976
3.685	12.9624
3.669	12.9433
3.653	12.9362
3.638	12.9279
3.623	12.9243
3.608	12.9052
3.593	12.8801
3.578	12.834
3.563	12.8073
3.548	12.7653
3.534	12.7226
3.519	12.6108
3.505	12.3479
3.491	12.3659
3.477	12.374
3.463	12.3586
3.449	12.2495
3.435	12.1159
3.422	11.8535
3.408	11.8391
3.395	11.9792
3.382	11.9426
3.369	11.9482
3.355	12.0068
3.342	12.0024
3.33	11.9658
3.317	11.9104
3.304	11.8501
3.292	11.7839
3.279	11.7097
3.267	11.6389
3.254	11.5505
3.242	11.4668
3.23	11.3745
3.218	11.2685
3.206	11.1804
3.194	11.0759
3.182	10.9812
3.171	10.8808
3.159	10.8005
3.148	10.7072
3.136	10.6118
3.125	10.5349
3.114	10.4533
3.102	10.3969
3.091	10.3325
3.08	10.3088
3.069	10.2593
3.058	10.2153
3.048	10.1745
3.037	10.1113
3.026	10.0559
3.016	9.988
3.005	9.9221
2.995	9.8769
2.985	9.8491
2.974	9.8022
2.964	9.7671
2.954	9.7593
2.944	9.7986
2.934	9.8049
2.924	9.8232
2.914	9.854
2.904	9.8799
2.895	9.9302
2.885	9.9624
2.875	10.0063
2.866	10.0486
2.856	10.114
2.847	10.1711
2.838	10.2351
2.828	10.3039
2.819	10.3947
2.81	10.5254
2.801	10.6887
2.792	10.8391
2.783	10.9489
2.774	11.1665
2.765	11.3337
2.756	11.5893
2.747	11.9497
2.739	12.2024
2.73	12.5815
2.721	12.8725
2.713	13.2024
2.704	13.4162
2.696	13.5805
2.687	13.7849
2.679	13.8379
2.671	13.8686
2.663	14.0642
2.654	14.1018
2.646	14.1245
2.638	14.1618
2.63	14.0869
2.622	14.1494
2.614	14.1411
2.606	14.0966
2.599	14.1743
2.591	14.163
2.583	14.1169
2.575	14.1172
2.568	14.124
2.56	14.1101
2.553	14.0988
2.545	14.1428
2.538	14.125
2.53	14.0866
2.523	14.0593
2.515	14.0752
2.508	14.0649
2.501	14.0771
2.494	14.0454
2.486	14.0693
2.479	14.0498
2.472	14.0503
2.465	14.0222
2.458	14.0188
2.451	14.0249
2.444	13.9763
2.437	13.9636
2.43	13.9682
2.424	13.9365
2.417	13.9401
2.41	13.9582
2.403	13.9209
2.397	13.8764
2.39	13.853
2.384	13.8337
2.377	13.8261
2.37	13.8115
2.364	13.8122
2.358	13.7392
2.351	13.7514
2.345	13.7348
2.338	13.708
2.332	13.6772
2.326	13.6552
2.32	13.6377
2.313	13.6357
2.307	13.6328
2.301	13.602
2.295	13.5886
2.289	13.5881
2.283	13.5654
2.277	13.54
2.271	13.5083
2.265	13.5127
2.259	13.4394
2.253	13.455
2.247	13.4331
2.241	13.4062
2.236	13.3965
2.23	13.3474
2.224	13.3166
2.218	13.3159
2.213	13.2912
2.207	13.2285
2.201	13.219
2.196	13.1867
2.19	13.1411
2.185	13.1401
2.179	13.081
2.174	13.0942
2.168	13.059
2.163	13.0578
2.157	12.9746
2.152	12.9067
2.147	12.9004
2.141	12.8686
2.136	12.8696
2.131	12.8647
2.126	12.7934
2.12	12.7812
2.115	12.7212
2.11	12.6528
2.105	12.6911
2.1	12.6313
2.095	12.6772
2.09	12.6572
2.085	12.6049
2.079	12.5002
