Name: Fluorite CaF2
Type: Mineral
Class: Halides
Particle Size: Solid (crystal face)
Sample No.: flourite.1
Owner: JHU
Wavelength Range: IR
Origin: Donated by Norma Vergo; sample from Bingham, New Mexico.
Description: The sample was a large piece of a transparent single
Measurement: Bidirectional reflectance
X Units: Wavelength (micrometers)
Y Units: Reflectance (percent)
wavelength	value
25.0442	70.0743
24.3388	69.9339
23.6719	69.8131
23.0407	70.0526
22.4422	69.5443
21.8741	67.9993
21.334	66.0208
20.8199	64.1243
20.33	59.6251
19.8627	53.3563
19.4163	47.725
18.9896	41.4901
18.5812	33.7453
18.19	27.1264
17.815	21.6716
17.4551	17.5676
17.1094	13.5092
16.7772	8.8742
16.4576	3.7727
16.15	0.8464
15.8537	0.4832
15.568	0.8594
15.2925	1.3022
15.0265	1.7234
14.7697	2.1357
14.5214	2.4351
14.2814	2.7637
14.0492	3.0566
13.8244	3.2864
13.6067	3.4968
13.3957	3.7012
13.1912	3.896
12.9929	4.0898
12.8004	4.2834
12.6135	4.4226
12.432	4.5578
12.2557	4.6809
12.0843	4.8215
11.9176	4.9665
11.7555	5.0659
11.5977	5.1894
11.444	5.3154
11.2944	5.4221
11.1487	5.5393
11.0067	5.6509
10.8682	5.7244
10.7332	5.7922
10.6015	5.8677
10.473	5.9507
10.3476	6.0349
10.2251	6.1179
10.1056	6.2253
9.98873	6.3757
9.87458	6.4441
9.763	6.4848
9.65392	6.4722
9.54724	6.4155
9.44291	6.4109
9.34082	6.4641
9.24091	6.5161
9.14312	6.5552
9.04739	6.5991
8.95363	6.665
8.8618	6.6233
8.77183	6.5908
8.68368	6.5845
8.59727	6.5864
8.51257	6.6189
8.42951	6.6284
8.34807	6.6365
8.26819	6.6509
8.18981	6.6504
8.11292	6.6526
8.03745	6.6592
7.96337	6.6555
7.89064	6.6592
7.81924	6.6655
7.74911	6.6772
7.68023	6.6963
7.61256	6.7107
7.54608	6.73
7.48074	6.7446
7.41653	6.7595
7.35341	6.7656
7.29136	6.7827
7.23034	6.8039
7.17033	6.8288
7.11132	6.8576
7.05327	6.8713
6.99616	6.8862
6.93996	6.9145
6.88467	6.9297
6.83024	6.9389
6.77667	6.9236
6.72393	6.9226
6.67201	6.9138
6.62089	6.8904
6.57054	6.8633
6.52095	6.8508
6.4721	6.8469
6.42398	6.8398
6.37657	6.8413
6.32986	6.8349
6.28382	6.8403
6.23845	6.8398
6.19373	6.831
6.14965	6.8364
6.10619	6.8398
6.06334	6.8452
6.02109	6.841
5.97942	6.824
5.93832	6.8056
5.89778	6.7908
5.8578	6.7932
5.81835	6.7966
5.77943	6.8091
5.74103	6.8179
5.70314	6.7851
5.66574	6.7756
5.62883	6.7793
5.5924	6.7744
5.55644	6.7722
5.52093	6.7781
5.48588	6.7773
5.45127	6.7849
5.41709	6.7837
5.38334	6.7876
5.35	6.7842
5.31708	6.7827
5.28456	6.7815
5.25243	6.779
5.2207	6.7744
5.18934	6.77
5.15836	6.7688
5.12775	6.7676
5.09749	6.7641
5.0676	6.7597
5.03805	6.7573
5.00884	6.7556
4.97998	6.7502
4.95144	6.7439
4.92322	6.7358
4.89533	6.7368
4.86775	6.7314
4.84048	6.7295
4.81351	6.7234
4.78684	6.7236
4.76047	6.7187
4.73439	6.7117
4.70859	6.7058
4.68306	6.6994
4.65782	6.6982
4.63284	6.6902
4.60814	6.6892
4.58369	6.6838
4.5595	6.6777
4.53557	6.6675
4.51188	6.6626
4.48845	6.6582
4.46525	6.6489
4.44229	6.6428
4.41957	6.6326
4.39708	6.6313
4.37481	6.6186
4.35277	6.6091
4.33096	6.6047
4.30935	6.5959
4.28797	6.5928
4.26679	6.583
4.24583	6.5715
4.22506	6.5681
4.2045	6.5622
4.18414	6.5554
4.16398	6.5376
4.14401	6.5339
4.12423	6.5276
4.10464	6.5185
4.08523	6.5088
4.066	6.5007
4.04696	6.4951
4.02809	6.4751
4.0094	6.4702
3.99088	6.4541
3.97253	6.4382
3.95435	6.4277
3.93634	6.4216
3.91848	6.4089
3.90079	6.4001
3.88326	6.3887
3.86589	6.3755
3.84867	6.3667
3.8316	6.3547
3.81468	6.3413
3.79791	6.3293
3.78129	6.3186
3.76482	6.3064
3.74848	6.2971
3.73229	6.2868
3.71624	6.2746
3.70032	6.2634
3.68454	6.2507
3.6689	6.2336
3.65338	6.216
3.638	6.2019
3.62275	6.1909
3.60762	6.175
3.59262	6.1592
3.57775	6.1438
3.56299	6.1308
3.54836	6.1201
3.53385	6.1072
3.51945	6.1101
3.50517	6.1106
3.49101	6.0539
3.47696	6.0349
3.46303	6.0295
3.4492	6.0185
3.43549	6.0373
3.42188	6.0293
3.40838	5.9499
3.39499	5.9028
3.38171	5.8791
3.36852	5.8525
3.35544	5.8308
3.34246	5.81
3.32958	5.7927
3.3168	5.7798
3.30411	5.7602
3.29153	5.7388
3.27903	5.7158
3.26664	5.6943
3.25433	5.6723
3.24212	5.6474
3.23	5.6257
3.21797	5.6025
3.20603	5.5801
3.19418	5.5635
3.18241	5.5371
3.17074	5.5105
3.15914	5.4824
3.14763	5.4558
3.13621	5.4341
3.12487	5.3999
3.11361	5.3743
3.10243	5.3447
3.09133	5.3227
3.0803	5.2952
3.06936	5.2651
3.0585	5.238
3.04771	5.2019
3.037	5.175
3.02636	5.1382
3.0158	5.116
3.00531	5.0867
2.99489	5.0554
2.98454	5.03
2.97427	5.001
2.96407	4.9773
2.95393	4.937
2.94387	4.907
2.93387	4.8786
2.92394	4.8474
2.91408	4.8059
2.90429	4.7663
2.89456	4.7263
2.88489	4.699
2.87529	4.6562
2.86576	4.6216
2.85628	4.583
2.84687	4.5591
2.83752	4.5224
2.82823	4.4868
2.81901	4.4585
2.80984	4.4177
2.80073	4.3767
2.79168	4.3418
2.78269	4.31
2.77376	4.2776
2.76488	4.25
2.75606	4.2048
2.7473	4.1716
2.73859	4.1306
2.72994	4.0991
2.72134	4.0537
2.7128	4.0217
2.70431	3.9863
2.69587	3.9399
2.68748	3.9094
2.67915	3.8677
2.67087	3.8252
2.66264	3.7895
2.65446	3.7602
2.64633	3.7109
2.63825	3.6743
2.63021	3.6379
2.62223	3.5791
2.6143	3.5564
2.60641	3.5159
2.59857	3.4717
2.59078	3.4311
2.58304	3.3979
2.57534	3.3542
2.56768	3.3257
2.56008	3.2891
2.55251	3.2537
2.54499	3.2075
2.53752	3.1677
2.53009	3.1392
2.5227	3.0911
2.51536	3.0622
2.50806	3.0249
2.5008	2.9841
2.49358	2.9592
2.4864	2.9265
2.47927	2.8884
2.47218	2.8486
2.46512	2.8061
2.45811	2.7783
2.45114	2.7595
2.4442	2.7209
2.43731	2.6912
2.43045	2.6562
2.42363	2.6318
2.41685	2.5967
2.41011	2.5703
2.40341	2.5364
2.39674	2.5266
2.39011	2.4912
2.38352	2.4614
2.37696	2.4424
2.37044	2.4192
2.36395	2.4058
2.35751	2.3879
2.35109	2.3459
2.34471	2.3308
2.33836	2.3071
2.33205	2.2712
2.32578	2.2488
2.31953	2.2371
2.31332	2.2046
2.30714	2.2046
2.301	2.1824
2.29489	2.1685
2.28881	2.145
2.28276	2.1352
2.27675	2.1287
2.27076	2.0986
2.26481	2.082
2.25889	2.071
2.253	2.061
2.24714	2.0574
2.24131	2.0471
2.23551	2.0303
2.22974	2.0071
2.224	1.9907
2.21829	1.9829
2.21261	1.9788
2.20696	1.9548
2.20134	1.9387
2.19574	1.9373
2.19018	1.9241
2.18464	1.9148
2.17913	1.9058
2.17365	1.9011
2.16819	1.8938
2.16277	1.8809
2.15737	1.8699
2.15199	1.8621
2.14665	1.8498
2.14133	1.844
2.13603	1.8257
2.13077	1.8262
2.12552	1.7978
2.12031	1.7881
2.11512	1.7781
2.10995	1.7932
2.10481	1.7842
2.0997	1.7876
2.09461	1.7576
2.08954	1.762
2.0845	1.748
2.07948	1.7637
