Name: Graphite Schist
Type: Rocks
Class: Metamorphic
Subclass: Schist
Particle Size: 500-1500 Micrometer
Sample No.: schist5.doc
Owner: JHU
Wavelength Range: All
Origin: Sample No. 468, The Hunt and Salisbury Collection at the U.S.
Description: This schistose rock contains abundant carbonaceous grains
Measurement: Directional (10 Degree) Hemispherical Reflectance
X Units: Wavelength (micrometers)
Y Units: Reflectance (percent)
wavelength	value
14.9831	6.9595
14.6445	6.8831
14.3209	6.5221
14.0112	6.6552
13.7147	6.6758
13.4304	6.7571
13.1577	6.9316
12.8959	7.5172
12.6443	7.4294
12.4023	6.9266
12.1694	6.1918
11.945	6.5605
11.7289	6.7201
11.5203	6.8253
11.3191	6.9193
11.1248	7.0659
10.937	7.2582
10.7555	7.3631
10.5799	7.4741
10.4099	7.7088
10.2454	8.1389
10.0859	8.654
9.9313	9.1115
9.7814	9.2893
9.636	10.0081
9.4948	10.9518
9.3577	13.3287
9.2245	14.4268
9.095	14.0126
8.9691	13.7552
8.8467	13.7292
8.7275	13.4966
8.6116	12.4747
8.4986	14.1114
8.3886	14.1377
8.2814	14.0323
8.1769	13.2731
8.075	10.7431
7.9756	8.8562
7.8786	7.6851
7.784	7.171
7.6916	6.9548
7.6014	6.7751
7.5133	6.6739
7.4272	6.6031
7.343	6.57
7.2607	6.605
7.1803	6.6514
7.1016	6.6889
7.0246	6.6905
6.9493	6.6945
6.8755	6.681
6.8034	6.6124
6.7327	6.5562
6.6634	6.5773
6.5956	6.5593
6.5292	6.5705
6.464	6.6865
6.4002	6.686
6.3376	6.5721
6.2762	6.4426
6.216	6.3291
6.157	6.3746
6.099	6.5188
6.0421	6.5903
5.9863	6.5825
5.9315	6.5539
5.8777	6.6394
5.8249	6.7417
5.773	6.8198
5.722	6.8475
5.6719	6.7817
5.6227	6.6316
5.5744	6.6048
5.5268	6.6732
5.4801	6.781
5.4341	6.7826
5.3889	6.6481
5.3445	6.5624
5.3008	6.6003
5.2578	6.6953
5.2154	6.8665
5.1738	6.9108
5.1328	6.9046
5.0925	6.9046
5.0528	6.8814
5.0137	6.8944
4.9752	6.9631
4.9373	7.0661
4.9	7.2172
4.8632	7.41
4.827	7.5217
4.7913	7.5826
4.7561	7.6342
4.7215	7.6496
4.6873	7.5956
4.6536	7.6447
4.6205	7.7356
4.5877	7.7732
4.5555	7.7687
4.5237	7.6806
4.4923	7.5414
4.4614	7.4983
4.4309	7.5862
4.4008	7.6899
4.3711	7.773
4.3418	7.8393
4.3129	7.8469
4.2844	7.849
4.2563	7.8592
4.2285	7.8687
4.2011	7.88
4.174	7.8751
4.1473	7.9021
4.1209	7.9146
4.0949	7.9407
4.0692	7.9473
4.0438	7.948
4.0187	7.9348
3.994	7.9371
3.9695	7.9539
3.9453	7.9509
3.9214	7.9501
3.8979	7.9343
3.8746	7.9392
3.8515	7.9208
3.8288	7.9222
3.8063	7.9158
3.7841	7.8985
3.7621	7.8919
3.7404	7.8602
3.7189	7.8483
3.6977	7.8599
3.6767	7.8559
3.656	7.8355
3.6355	7.8327
3.6152	7.8126
3.5951	7.7995
3.5753	7.7761
3.5557	7.7801
3.5363	7.7552
3.5171	7.7486
3.4981	7.7399
3.4793	7.7062
3.4607	7.7053
3.4423	7.6634
3.4241	7.6432
3.4061	7.6042
3.3883	7.5582
3.3707	7.5059
3.3533	7.4512
3.336	7.4237
3.3189	7.3917
3.302	7.3721
3.2853	7.333
3.2687	7.3155
3.2523	7.2766
3.2361	7.2217
3.22	7.1732
3.204	7.1256
3.1883	7.1061
3.1727	7.0813
3.1572	7.0595
3.1419	7.0415
3.1268	7.0282
3.1117	7.0157
3.0969	7.018
3.0821	7.001
3.0675	7.0034
3.0531	7.0145
3.0388	7.0057
3.0246	7.0169
3.0105	7.0353
2.9966	7.045
2.9828	6.9913
2.9692	6.9093
2.9556	6.7992
2.9422	6.7734
2.9289	6.7286
2.9157	6.7779
2.9027	6.8208
2.8897	6.8428
2.8769	6.8634
2.8642	6.8696
2.8516	6.8229
2.8391	6.8047
2.8267	6.768
2.8144	6.7085
2.8022	6.6839
2.7902	6.6988
2.7782	6.705
2.7664	6.6541
2.7546	6.6694
2.7429	6.8594
2.7314	6.9567
2.7199	7.1327
2.7085	7.2331
2.6973	7.382
2.6861	7.7808
2.675	7.9151
2.664	7.9717
2.6531	8.024
2.6423	8.0363
2.6315	8.0591
2.6209	8.0723
2.6103	8.0809
2.5999	8.0884
2.5895	8.0851
2.5792	8.0865
2.569	8.1034
2.5588	8.0934
2.5487	8.106
2.5388	8.0847
2.5289	8.145
2.519	8.0927
2.5093	8.0939
2.4996	8.1202
2.49	8.1351
2.4805	8.1273
2.471	8.1353
2.4616	8.1538
2.4523	8.1538
2.4431	8.1552
2.4339	8.1626
2.4248	8.1514
2.4157	8.1656
2.4068	8.195
2.3979	8.1829
2.389	8.1486
2.3802	8.1446
2.3715	8.1813
2.3629	8.1576
2.3543	8.1844
2.3458	8.1585
2.3373	8.1403
2.3289	8.1557
2.3206	8.1652
2.3123	8.1794
2.3041	8.151
2.2959	8.1969
2.2878	8.1886
2.2798	8.1772
2.2718	8.2083
2.2638	8.1754
2.2559	8.2121
2.2481	8.1635
2.2403	8.1834
2.2326	8.2185
2.225	8.2431
2.2173	8.2277
2.2098	8.1623
2.2023	8.2644
2.1948	8.2097
2.1874	8.2573
2.18	8.2109
2.1727	8.2552
2.1655	8.2443
2.1583	8.316
2.1511	8.2729
2.144	8.2379
2.1369	8.2857
2.1299	8.3177
2.1229	8.2398
2.116	8.3056
2.1091	8.2826
2.1023	8.2878
2.0955	8.285
2.0887	8.2315
2.082	8.3899
2.06	8.311
2.028	8.3924
1.996	8.2216
1.964	8.3626
1.932	8.226
1.9	8.3419
1.868	8.3208
1.836	8.4659
1.804	8.47
1.772	8.4277
1.74	8.3554
1.708	8.3142
1.676	8.4437
1.644	8.4948
1.612	8.4565
1.58	8.5084
1.548	8.4081
1.516	8.3976
1.484	8.2778
1.452	8.2253
1.42	8.2618
1.388	8.26
1.356	8.2652
1.324	8.2382
1.292	8.2711
1.26	8.1284
1.228	8.0312
1.196	8.1766
1.164	8.0552
1.132	8.0823
1.1	7.9405
1.068	7.9427
1.036	7.9583
1.004	8.003
0.972	7.9874
0.94	8.021
0.908	7.9373
0.876	7.8969
0.844	7.8604
0.812	7.9879
0.795	8.1485
0.787	8.0474
0.779	8.0681
0.771	8.0875
0.763	8.0664
0.755	8.0617
0.747	8.0019
0.739	7.9893
0.731	8.0575
0.723	7.9384
0.715	8.0382
0.707	7.9167
0.699	8.0447
0.691	7.9173
0.683	7.9967
0.675	7.8968
0.667	7.9517
0.659	7.9667
0.651	7.9267
0.643	7.8968
0.635	8.1243
0.627	7.9695
0.619	8.0619
0.611	7.9722
0.603	7.967
0.595	7.9249
0.587	7.8678
0.579	7.744
0.571	7.9142
0.563	8.0143
0.555	7.792
0.547	7.7463
0.539	7.896
0.531	7.7579
0.523	7.7289
0.515	7.8344
0.507	7.7834
0.499	7.813
0.491	7.7957
0.483	7.7
0.475	7.8278
0.467	7.6091
0.459	7.7701
0.451	7.4817
0.443	7.5806
0.435	7.432
0.427	7.5439
0.419	7.378
0.411	7.3411
0.403	7.1961
