Name: Montmorillonite (Na,Ca)0.33(Al,Mg)2Si4O10(OH)2.nH2O
Type: Mineral
Class: Silicates
Subclass: Phyllosilicates (Sheet Silicates); (SmectiteGroup)
Particle Size: Fine  (0-2  Micrometers)
Sample No.: montmor.1
Owner: JHU
Wavelength Range: IR
Origin: San Diego, California via Clay Mineral Society, Source Clay
Description: The sample was a tan, earthy clay. The bulk sample
Measurement: Bidirectional reflectance
X Units: Wavelength (micrometers)
Y Units: Reflectance (percent)
wavelength	value
25.0442	2.0913
24.3388	2.2248
23.6719	2.1111
23.0407	1.9683
22.4422	2.0952
21.8741	2.1396
21.334	2.2974
20.8199	2.1426
20.33	1.7412
19.8627	1.6575
19.4163	1.8489
18.9896	2.0754
18.5812	1.9519
18.19	1.8457
17.815	1.7422
17.4551	1.6431
17.1094	1.469
16.7772	1.3118
16.4576	1.1121
16.15	1.0149
15.8537	0.8813
15.568	0.7261
15.2925	0.7009
15.0265	0.7598
14.7697	0.7903
14.5214	0.8535
14.2814	0.9255
14.0492	1.0278
13.8244	1.1426
13.6067	1.2117
13.3957	1.3574
13.1912	1.447
12.9929	1.498
12.8004	1.4993
12.6135	1.4927
12.432	1.5647
12.2557	1.5786
12.0843	1.4341
11.9176	1.2737
11.7555	1.3376
11.5977	1.4814
11.444	1.5281
11.2944	1.5037
11.1487	1.4319
11.0067	1.2749
10.8682	1.2041
10.7332	1.2671
10.6015	1.3018
10.473	1.2978
10.3476	1.2832
10.2251	1.2886
10.1056	1.3596
9.98873	1.425
9.87458	1.5293
9.763	1.6672
9.65392	1.8872
9.54724	2.1475
9.44291	2.3774
9.34082	2.4722
9.24091	2.3091
9.14312	1.9705
9.04739	1.7664
8.95363	1.8357
8.8618	1.9228
8.77183	1.9709
8.68368	1.9463
8.59727	1.865
8.51257	1.7158
8.42951	1.4502
8.34807	0.9473
8.26819	0.4609
8.18981	0.3174
8.11292	0.4165
8.03745	0.6211
7.96337	0.8882
7.89064	1.2014
7.81924	1.5261
7.74911	1.832
7.68023	2.1492
7.61256	2.4326
7.54608	2.6799
7.48074	2.908
7.41653	3.1247
7.35341	3.3088
7.29136	3.4729
7.23034	3.6702
7.17033	3.8508
7.11132	3.9827
7.05327	4.0745
6.99616	4.1899
6.93996	4.3474
6.88467	4.4726
6.83024	4.5774
6.77667	4.6841
6.72393	4.802
6.67201	4.8765
6.62089	4.9265
6.57054	4.9121
6.52095	4.9014
6.4721	4.824
6.42398	4.6804
6.37657	4.4731
6.32986	4.1223
6.28382	3.5303
6.23845	2.6709
6.19373	1.8147
6.14965	1.2603
6.10619	1.0044
6.06334	1.0771
6.02109	1.3103
5.97942	1.6345
5.93832	2.0823
5.89778	2.6865
5.8578	3.4993
5.81835	4.1816
5.77943	4.7715
5.74103	5.2473
5.70314	5.5884
5.66574	5.8064
5.62883	5.8945
5.5924	5.8657
5.55644	5.7632
5.52093	5.6318
5.48588	5.553
5.45127	5.5808
5.41709	5.7056
5.38334	5.9038
5.35	6.1052
5.31708	6.2917
5.28456	6.4053
5.25243	6.4773
5.2207	6.5415
5.18934	6.6079
5.15836	6.7124
5.12775	6.8462
5.09749	7.0107
5.0676	7.1775
5.03805	7.3628
5.00884	7.5364
4.97998	7.6701
4.95144	7.8115
4.92322	7.9253
4.89533	8.0127
4.86775	8.0971
4.84048	8.1804
4.81351	8.2549
4.78684	8.324
4.76047	8.4026
4.73439	8.4746
4.70859	8.5332
4.68306	8.5913
4.65782	8.633
4.63284	8.685
4.60814	8.7246
4.58369	8.7566
4.5595	8.771
4.53557	8.7829
4.51188	8.8056
4.48845	8.8332
4.46525	8.8567
4.44229	8.8755
4.41957	8.9087
4.39708	8.9304
4.37481	8.9558
4.35277	9.0117
4.33096	9.0549
4.30935	9.1135
4.28797	9.1855
4.26679	9.2907
4.24583	9.3943
4.22506	9.4985
4.2045	9.6137
4.18414	9.7407
4.16398	9.873
4.14401	9.997
4.12423	10.1364
4.10464	10.28
4.08523	10.435
4.066	10.5681
4.04696	10.7033
4.02809	10.832
4.0094	10.9592
3.99088	11.062
3.97253	11.1428
3.95435	11.2158
3.93634	11.2688
3.91848	11.3171
3.90079	11.344
3.88326	11.3552
3.86589	11.343
3.84867	11.3132
3.8316	11.2829
3.81468	11.2304
3.79791	11.1594
3.78129	11.0808
3.76482	10.9973
3.74848	10.8806
3.73229	10.7605
3.71624	10.634
3.70032	10.487
3.68454	10.343
3.6689	10.1968
3.65338	10.0478
3.638	9.8728
3.62275	9.678
3.60762	9.4944
3.59262	9.2846
3.57775	9.0661
3.56299	8.8303
3.54836	8.5925
3.53385	8.3403
3.51945	8.0891
3.50517	7.8266
3.49101	7.5915
3.47696	7.332
3.46303	7.0473
3.4492	6.7654
3.43549	6.4712
3.42188	6.1733
3.40838	5.9075
3.39499	5.6509
3.38171	5.3779
3.36852	5.1257
3.35544	4.8599
3.34246	4.5854
3.32958	4.3364
3.3168	4.0862
3.30411	3.8528
3.29153	3.5959
3.27903	3.384
3.26664	3.1636
3.25433	2.9521
3.24212	2.741
3.23	2.5703
3.21797	2.376
3.20603	2.2012
3.19418	2.0466
3.18241	1.896
3.17074	1.7522
3.15914	1.6265
3.14763	1.509
3.13621	1.3999
3.12487	1.3142
3.11361	1.2253
3.10243	1.1531
3.09133	1.1082
3.0803	1.0835
3.06936	1.0566
3.0585	1.0308
3.04771	1.0207
3.037	1.0029
3.02636	0.9812
3.0158	0.9478
3.00531	0.9001
2.99489	0.8806
2.98454	0.8494
2.97427	0.8135
2.96407	0.7793
2.95393	0.7671
2.94387	0.7512
2.93387	0.73
2.92394	0.7351
2.91408	0.7158
2.90429	0.7209
2.89456	0.7131
2.88489	0.7043
2.87529	0.7058
2.86576	0.6855
2.85628	0.6919
2.84687	0.675
2.83752	0.6562
2.82823	0.6467
2.81901	0.6345
2.80984	0.6094
2.80073	0.5767
2.79168	0.5293
2.78269	0.4866
2.77376	0.4331
2.76488	0.3904
2.75606	0.406
2.7473	0.4634
2.73859	0.5527
2.72994	0.7058
2.72134	1.0032
2.7128	1.6316
2.70431	2.5889
2.69587	3.843
2.68748	5.0913
2.67915	5.9817
2.67087	6.6523
2.66264	7.2016
2.65446	7.5898
2.64633	7.8972
2.63825	8.146
2.63021	8.301
2.62223	8.4966
2.6143	8.605
2.60641	8.6955
2.59857	8.7964
2.59078	8.8899
2.58304	8.9038
2.57534	8.9826
2.56768	9.0346
2.56008	9.0407
2.55251	9.1018
2.54499	9.1804
2.53752	9.2021
2.53009	9.2895
2.5227	9.3716
2.51536	9.4668
2.50806	9.5493
2.5008	9.6628
2.49358	9.7744
2.4864	9.8269
2.47927	9.895
2.47218	9.9399
2.46512	9.9375
2.45811	10.01
2.45114	10.0522
2.4442	10.1069
2.43731	10.1936
2.43045	10.2898
2.42363	10.3799
2.41685	10.4118
2.41011	10.5029
2.40341	10.5581
2.39674	10.6318
2.39011	10.7353
2.38352	10.8296
2.37696	10.9892
2.37044	11.0864
2.36395	11.208
2.35751	11.3413
2.35109	11.4868
2.34471	11.5737
2.33836	11.6689
2.33205	11.8042
2.32578	11.8957
2.31953	12.0019
2.31332	12.1679
2.30714	12.2998
2.301	12.4599
2.29489	12.5874
2.28881	12.7055
2.28276	12.7876
2.27675	12.8554
2.27076	12.8523
2.26481	12.7715
2.25889	12.6425
2.253	12.437
2.24714	12.2358
2.24131	12.0652
2.23551	11.9094
2.22974	11.7021
2.224	11.5215
2.21829	11.2695
2.21261	11.2646
2.20696	11.6259
2.20134	12.1071
2.19574	12.582
2.19018	12.9389
2.18464	13.2016
2.17913	13.3278
2.17365	13.4309
2.16819	13.5449
2.16277	13.6235
2.15737	13.6208
2.15199	13.6377
2.14665	13.6237
2.14133	13.623
2.13603	13.6252
2.13077	13.6513
2.12552	13.6267
2.12031	13.5952
2.11512	13.5842
2.10995	13.6145
2.10481	13.5827
2.0997	13.6184
2.09461	13.6179
2.08954	13.602
2.0845	13.6223
2.07948	13.6162
