Name: Biotite K(Mg,Fe+2)3(Al,Fe+3)Si3O10(OH,F)2
Type: Mineral
Class: Silicates
Subclass: Phyllosilicates (Mica Group)
Particle Size: Coarse  (74-250 Micrometers)
Sample No.: biotite.2
Owner: JHU
Wavelength Range: IR
Origin: Hunt and Salisbury Collection #28B (purchased from Ward's
Description: No solid sample was available.  The particulate samples
Measurement: Bidirectional reflectance
X Units: Wavelength (micrometers)
Y Units: Reflectance (percent)
wavelength	value
25.0442	6.6347
24.3388	6.9106
23.6719	7.5054
23.0407	8.4521
22.4422	9.8938
21.8741	11.75
21.334	13.2314
20.8199	13.4377
20.33	14.0056
19.8627	14.8584
19.4163	15.6045
18.9896	15.9707
18.5812	14.9929
18.19	12.5713
17.815	8.8921
17.4551	5.0351
17.1094	3.081
16.7772	2.4944
16.4576	2.2798
16.15	2.2871
15.8537	2.3799
15.568	2.4849
15.2925	2.491
15.0265	2.5029
14.7697	2.6445
14.5214	2.6865
14.2814	2.8948
14.0492	3.1257
13.8244	2.9724
13.6067	2.8762
13.3957	3.2104
13.1912	3.5308
12.9929	3.7385
12.8004	4.1333
12.6135	4.4739
12.432	4.6196
12.2557	4.9753
12.0843	5.2048
11.9176	5.241
11.7555	5.1868
11.5977	5.2812
11.444	5.3486
11.2944	5.1306
11.1487	4.8999
11.0067	4.8462
10.8682	4.9661
10.7332	5.218
10.6015	5.6433
10.473	6.364
10.3476	7.1853
10.2251	7.3987
10.1056	7.8674
9.98873	9.8025
9.87458	12.737
9.763	14.0285
9.65392	12.9282
9.54724	11.7373
9.44291	11.1037
9.34082	10.9631
9.24091	11.5464
9.14312	11.8161
9.04739	10.8759
8.95363	9.4143
8.8618	7.1006
8.77183	4.4106
8.68368	2.2549
8.59727	1.3364
8.51257	1.5498
8.42951	2.0786
8.34807	2.6758
8.26819	3.2725
8.18981	3.8066
8.11292	4.2475
8.03745	4.6255
7.96337	4.9211
7.89064	5.1704
7.81924	5.3826
7.74911	5.5791
7.68023	5.7851
7.61256	6.0044
7.54608	6.2475
7.48074	6.4726
7.41653	6.7185
7.35341	6.9502
7.29136	7.1653
7.23034	7.3994
7.17033	7.5593
7.11132	7.7065
7.05327	7.8037
6.99616	7.9475
6.93996	8.1074
6.88467	8.2866
6.83024	8.4768
6.77667	8.6784
6.72393	8.8613
6.67201	9.018
6.62089	9.1784
6.57054	9.2934
6.52095	9.3445
6.4721	9.2573
6.42398	9.0442
6.37657	8.8169
6.32986	8.5285
6.28382	8.2439
6.23845	7.9856
6.19373	7.7951
6.14965	7.6758
6.10619	7.6211
6.06334	7.6677
6.02109	7.8296
5.97942	7.9895
5.93832	8.0002
5.89778	8.0171
5.8578	8.0647
5.81835	8.0986
5.77943	8.2002
5.74103	8.2732
5.70314	8.3257
5.66574	8.4453
5.62883	8.6133
5.5924	8.7658
5.55644	8.8782
5.52093	9.0115
5.48588	9.1601
5.45127	9.3926
5.41709	9.7199
5.38334	10.1838
5.35	10.729
5.31708	11.334
5.28456	11.7732
5.25243	11.966
5.2207	12.0403
5.18934	12.0827
5.15836	12.1059
5.12775	12.1125
5.09749	12.0825
5.0676	12.0205
5.03805	11.9489
5.00884	11.9594
4.97998	12.0583
4.95144	12.1252
4.92322	12.08
4.89533	12.0395
4.86775	12.1028
4.84048	12.2495
4.81351	12.3955
4.78684	12.5578
4.76047	12.7575
4.73439	13.0036
4.70859	13.2146
4.68306	13.3818
4.65782	13.5688
4.63284	13.7883
4.60814	14.018
4.58369	14.2373
4.5595	14.4423
4.53557	14.5971
4.51188	14.6958
4.48845	14.7707
4.46525	14.843
4.44229	14.8877
4.41957	14.9323
4.39708	14.9797
4.37481	15.0163
4.35277	15.0568
4.33096	15.0844
4.30935	15.1037
4.28797	15.1269
4.26679	15.1284
4.24583	15.186
4.22506	15.1889
4.2045	15.2109
4.18414	15.2216
4.16398	15.2212
4.14401	15.2121
4.12423	15.2363
4.10464	15.24
4.08523	15.2426
4.066	15.2404
4.04696	15.2331
4.02809	15.2273
4.0094	15.1999
3.99088	15.1718
3.97253	15.1584
3.95435	15.2014
3.93634	15.2326
3.91848	15.2526
3.90079	15.2736
3.88326	15.2802
3.86589	15.2878
3.84867	15.3049
3.8316	15.3181
3.81468	15.3374
3.79791	15.3447
3.78129	15.3754
3.76482	15.3896
3.74848	15.3901
3.73229	15.3921
3.71624	15.4084
3.70032	15.3928
3.68454	15.3996
3.6689	15.3972
3.65338	15.4087
3.638	15.4113
3.62275	15.4118
3.60762	15.4116
3.59262	15.395
3.57775	15.3962
3.56299	15.3806
3.54836	15.362
3.53385	15.3249
3.51945	15.2544
3.50517	15.1543
3.49101	15.1767
3.47696	15.1445
3.46303	15.1525
3.4492	15.0925
3.43549	15.0129
3.42188	14.8994
3.40838	14.9043
3.39499	14.9494
3.38171	14.934
3.36852	14.9494
3.35544	14.969
3.34246	14.989
3.32958	14.9951
3.3168	14.9587
3.30411	14.9187
3.29153	14.8657
3.27903	14.8022
3.26664	14.7456
3.25433	14.6923
3.24212	14.646
3.23	14.5979
3.21797	14.5974
3.20603	14.6164
3.19418	14.6306
3.18241	14.6313
3.17074	14.604
3.15914	14.571
3.14763	14.5009
3.13621	14.4299
3.12487	14.3769
3.11361	14.3271
3.10243	14.2954
3.09133	14.2736
3.0803	14.247
3.06936	14.2033
3.0585	14.1438
3.04771	14.0947
3.037	14.0442
3.02636	13.9651
3.0158	13.8862
3.00531	13.8215
2.99489	13.7949
2.98454	13.7422
2.97427	13.6899
2.96407	13.6323
2.95393	13.6054
2.94387	13.5879
2.93387	13.5522
2.92394	13.529
2.91408	13.5112
2.90429	13.4692
2.89456	13.4013
2.88489	13.2832
2.87529	13.0627
2.86576	12.7343
2.85628	12.2578
2.84687	11.6025
2.83752	10.8667
2.82823	10.2551
2.81901	10.1504
2.80984	10.7014
2.80073	11.4489
2.79168	12.0219
2.78269	12.3596
2.77376	12.6455
2.76488	12.5996
2.75606	11.9834
2.7473	10.8408
2.73859	9.9177
2.72994	9.2553
2.72134	8.9375
2.7128	8.4448
2.70431	9.0356
2.69587	10.0019
2.68748	11.8491
2.67915	14.1411
2.67087	14.4152
2.66264	14.4546
2.65446	14.4321
2.64633	14.3867
2.63825	14.3681
2.63021	14.309
2.62223	14.3588
2.6143	14.4111
2.60641	14.4414
2.59857	14.4946
2.59078	14.4838
2.58304	14.4516
2.57534	14.4326
2.56768	14.4028
2.56008	14.3645
2.55251	14.363
2.54499	14.3366
2.53752	14.3105
2.53009	14.258
2.5227	14.1914
2.51536	14.2033
2.50806	14.1889
2.5008	14.1206
2.49358	14.1103
2.4864	14.0881
2.47927	14.0568
2.47218	14.03
2.46512	13.9765
2.45811	13.9458
2.45114	13.9214
2.4442	13.883
2.43731	13.8366
2.43045	13.7861
2.42363	13.6992
2.41685	13.6582
2.41011	13.5556
2.40341	13.4736
2.39674	13.3569
2.39011	13.3664
2.38352	13.4084
2.37696	13.4179
2.37044	13.4389
2.36395	13.4475
2.35751	13.3918
2.35109	13.3137
2.34471	13.2473
2.33836	13.1662
2.33205	13.1479
2.32578	13.2209
2.31953	13.3244
2.31332	13.4436
2.30714	13.5214
2.301	13.5937
2.29489	13.644
2.28881	13.6662
2.28276	13.6435
2.27675	13.6406
2.27076	13.6386
2.26481	13.6399
2.25889	13.625
2.253	13.5969
2.24714	13.5901
2.24131	13.5713
2.23551	13.5861
2.22974	13.5686
2.224	13.5129
2.21829	13.5078
2.21261	13.5039
2.20696	13.4436
2.20134	13.386
2.19574	13.3781
2.19018	13.3906
2.18464	13.3667
2.17913	13.2695
2.17365	13.2871
2.16819	13.291
2.16277	13.2744
2.15737	13.1982
2.15199	13.1123
2.14665	13.1064
2.14133	13.0888
2.13603	13.0473
2.13077	13.0097
2.12552	12.9922
2.12031	12.9594
2.11512	12.9267
2.10995	12.8691
2.10481	12.833
2.0997	12.8222
2.09461	12.7715
2.08954	12.7763
2.0845	12.7236
2.07948	12.726
