Name: Orthoclase KAlSi3O8
Type: Mineral
Class: Silicates
Subclass: Tectosilicates (Framework Silicates); (Feldspar Group)
Particle Size: Coarse  (75 - 250 Micrometers)
Sample No.: orthocl.3
Owner: JHU
Wavelength Range: IR
Origin: Harris Farm Mica Mine, near Oliver, Goochland Co., Virginia
Description: The hand sample is a single 11.97 g fragment of a single
Measurement: Bidirectional reflectance
X Units: Wavelength (micrometers)
Y Units: Reflectance (percent)
wavelength	value
25.0442	5.1567
24.3388	5.2541
23.6719	5.9219
23.0407	6.6274
22.4422	6.207
21.8741	4.6675
21.334	3.2832
20.8199	2.6894
20.33	2.0996
19.8627	2.428
19.4163	2.6863
18.9896	2.9619
18.5812	3.5979
18.19	3.4126
17.815	3.373
17.4551	4.0603
17.1094	4.8557
16.7772	5.5198
16.4576	5.4827
16.15	3.9683
15.8537	2.6816
15.568	2.6553
15.2925	2.2908
15.0265	2.0061
14.7697	2.1631
14.5214	2.3379
14.2814	2.5032
14.0492	2.6189
13.8244	2.5542
13.6067	2.3726
13.3957	2.2964
13.1912	2.3181
12.9929	2.2915
12.8004	2.1484
12.6135	2.1079
12.432	2.1184
12.2557	2.3547
12.0843	2.5679
11.9176	2.6804
11.7555	2.7419
11.5977	2.8379
11.444	2.9009
11.2944	2.9651
11.1487	3.0322
11.0067	3.1511
10.8682	3.2966
10.7332	3.4509
10.6015	3.6799
10.473	3.9683
10.3476	4.3801
10.2251	4.8826
10.1056	5.4785
9.98873	6.1452
9.87458	6.7619
9.763	7.134
9.65392	7.7368
9.54724	8.4814
9.44291	8.8567
9.34082	7.3432
9.24091	6.6057
9.14312	6.3977
9.04739	6.3398
8.95363	6.3249
8.8618	6.947
8.77183	7.9299
8.68368	8.4201
8.59727	8.3596
8.51257	8.123
8.42951	8.0298
8.34807	7.812
8.26819	6.7283
8.18981	5.2126
8.11292	3.6792
8.03745	2.3203
7.96337	1.2302
7.89064	0.5264
7.81924	0.2922
7.74911	0.3311
7.68023	0.4402
7.61256	0.5593
7.54608	0.6597
7.48074	0.7454
7.41653	0.8332
7.35341	0.9087
7.29136	0.9832
7.23034	1.0642
7.17033	1.1553
7.11132	1.2507
7.05327	1.3179
6.99616	1.3643
6.93996	1.406
6.88467	1.4434
6.83024	1.4543
6.77667	1.4875
6.72393	1.5269
6.67201	1.5598
6.62089	1.6011
6.57054	1.5969
6.52095	1.6133
6.4721	1.5881
6.42398	1.552
6.37657	1.5168
6.32986	1.4927
6.28382	1.49
6.23845	1.491
6.19373	1.5261
6.14965	1.5757
6.10619	1.6326
6.06334	1.6746
6.02109	1.7165
5.97942	1.7615
5.93832	1.7454
5.89778	1.7415
5.8578	1.6982
5.81835	1.6387
5.77943	1.6172
5.74103	1.582
5.70314	1.5535
5.66574	1.5244
5.62883	1.5322
5.5924	1.5659
5.55644	1.6274
5.52093	1.7183
5.48588	1.8315
5.45127	1.9311
5.41709	2.0378
5.38334	2.1289
5.35	2.2231
5.31708	2.3213
5.28456	2.448
5.25243	2.6411
5.2207	2.9204
5.18934	3.2607
5.15836	3.6494
5.12775	4.0766
5.09749	4.5239
5.0676	4.947
5.03805	5.2905
5.00884	5.4941
4.97998	5.5251
4.95144	5.4082
4.92322	5.2375
4.89533	5.1216
4.86775	5.051
4.84048	5.0513
4.81351	5.0578
4.78684	5.0713
4.76047	5.0937
4.73439	5.0969
4.70859	5.0942
4.68306	5.1001
4.65782	5.1921
4.63284	5.3415
4.60814	5.5671
4.58369	5.8486
4.5595	6.1941
4.53557	6.551
4.51188	6.8933
4.48845	7.2273
4.46525	7.5796
4.44229	7.9197
4.41957	8.2644
4.39708	8.583
4.37481	8.9165
4.35277	9.2475
4.33096	9.5683
4.30935	9.8965
4.28797	10.1889
4.26679	10.4375
4.24583	10.6518
4.22506	10.8213
4.2045	10.9453
4.18414	11.0354
4.16398	11.0884
4.14401	11.1313
4.12423	11.1509
4.10464	11.1762
4.08523	11.1997
4.066	11.206
4.04696	11.2212
4.02809	11.2534
4.0094	11.2993
3.99088	11.3222
3.97253	11.3574
3.95435	11.4008
3.93634	11.4267
3.91848	11.4768
3.90079	11.508
3.88326	11.5476
3.86589	11.5769
3.84867	11.6135
3.8316	11.6543
3.81468	11.6985
3.79791	11.718
3.78129	11.7558
3.76482	11.7697
3.74848	11.7793
3.73229	11.8
3.71624	11.8078
3.70032	11.8127
3.68454	11.8132
3.6689	11.8091
3.65338	11.791
3.638	11.7846
3.62275	11.7651
3.60762	11.7475
3.59262	11.7148
3.57775	11.6826
3.56299	11.6408
3.54836	11.6037
3.53385	11.5468
3.51945	11.509
3.50517	11.4624
3.49101	11.4319
3.47696	11.4182
3.46303	11.3745
3.4492	11.3288
3.43549	11.2705
3.42188	11.2082
3.40838	11.1535
3.39499	11.1054
3.38171	11.0515
3.36852	10.9983
3.35544	10.9145
3.34246	10.8469
3.32958	10.782
3.3168	10.6936
3.30411	10.6128
3.29153	10.5449
3.27903	10.4861
3.26664	10.4099
3.25433	10.3645
3.24212	10.32
3.23	10.3008
3.21797	10.2715
3.20603	10.2317
3.19418	10.1977
3.18241	10.1533
3.17074	10.0979
3.15914	10.0412
3.14763	9.9756
3.13621	9.9118
3.12487	9.8813
3.11361	9.8427
3.10243	9.8027
3.09133	9.7668
3.0803	9.7368
3.06936	9.7168
3.0585	9.6767
3.04771	9.656
3.037	9.6511
3.02636	9.6582
3.0158	9.6501
3.00531	9.645
2.99489	9.6789
2.98454	9.695
2.97427	9.7114
2.96407	9.6706
2.95393	9.6587
2.94387	9.6489
2.93387	9.6281
2.92394	9.6323
2.91408	9.6208
2.90429	9.6599
2.89456	9.7099
2.88489	9.7878
2.87529	9.8337
2.86576	9.9126
2.85628	10.0044
2.84687	10.0991
2.83752	10.1548
2.82823	10.2302
2.81901	10.3088
2.80984	10.3899
2.80073	10.4856
2.79168	10.5344
2.78269	10.5879
2.77376	10.6438
2.76488	10.719
2.75606	10.8083
2.7473	10.9944
2.73859	11.1123
2.72994	11.2522
2.72134	11.4243
2.7128	11.5783
2.70431	11.6408
2.69587	11.81
2.68748	11.9126
2.67915	11.9865
2.67087	12.0344
2.66264	12.0747
2.65446	12.1125
2.64633	12.0776
2.63825	12.0722
2.63021	12.0771
2.62223	12.0783
2.6143	12.0913
2.60641	12.0634
2.59857	12.0532
2.59078	12.0495
2.58304	12.0446
2.57534	12.0354
2.56768	11.9919
2.56008	12.0175
2.55251	11.978
2.54499	11.9651
2.53752	11.9736
2.53009	11.9716
2.5227	11.9131
2.51536	11.9199
2.50806	11.9106
2.5008	11.9228
2.49358	11.8706
2.4864	11.8337
2.47927	11.8462
2.47218	11.8281
2.46512	11.8086
2.45811	11.8154
2.45114	11.7851
2.4442	11.7339
2.43731	11.7549
2.43045	11.749
2.42363	11.7221
2.41685	11.7378
2.41011	11.729
2.40341	11.7168
2.39674	11.6245
2.39011	11.6782
2.38352	11.6482
2.37696	11.6479
2.37044	11.6308
2.36395	11.5825
2.35751	11.5503
2.35109	11.5822
2.34471	11.5722
2.33836	11.5393
2.33205	11.5136
2.32578	11.4973
2.31953	11.4709
2.31332	11.4846
2.30714	11.4821
2.301	11.4489
2.29489	11.4809
2.28881	11.4155
2.28276	11.4228
2.27675	11.3938
2.27076	11.3855
2.26481	11.406
2.25889	11.3818
2.253	11.33
2.24714	11.3352
2.24131	11.3506
2.23551	11.3427
2.22974	11.2942
2.224	11.2832
2.21829	11.3051
2.21261	11.2905
2.20696	11.2695
2.20134	11.2697
2.19574	11.2885
2.19018	11.2954
2.18464	11.2434
2.17913	11.2746
2.17365	11.2834
2.16819	11.2378
2.16277	11.2932
2.15737	11.2876
2.15199	11.2863
2.14665	11.2324
2.14133	11.2612
2.13603	11.271
2.13077	11.2766
2.12552	11.2651
2.12031	11.299
2.11512	11.2636
2.10995	11.2951
2.10481	11.2756
2.0997	11.2649
2.09461	11.3159
2.08954	11.2981
2.0845	11.3086
2.07948	11.3186
