Name: Andalusite Al2SiO5
Type: Mineral
Class: Silicates
Subclass: Nesosilicates  (Isolated tetrahedra) (Al2SiO5 Group)
Particle Size: solid
Owner: JHU
Wavelength Range: IR
Origin: Sample from St. Theresa, Espirito Santo, Brazil via Smithsonian
Description: Sample was composed of two crystals, one clear and one
Measurement: Bidirectional Reflectance
X Units: Wavelength (micrometers)
Y Units: Reflectance (percent)
wavelength	value
25.044	27.539
24.339	30.8632
23.672	35.6757
23.041	40.2352
22.442	41.6757
21.874	62.4998
21.334	40.5995
20.82	24.5976
20.33	30.1484
19.863	36.5551
19.416	28.2284
18.99	27.9457
18.581	36.4425
18.19	39.3566
17.815	38.1376
17.455	36.9359
17.109	37.1281
16.777	42.2811
16.458	46.2147
16.15	49.6239
15.854	52.4623
15.568	54.1114
15.292	55.6756
15.027	55.7523
14.77	58.7218
14.521	65.8546
14.281	67.2813
14.049	59.2943
13.824	53.7254
13.607	50.8441
13.396	47.1957
13.191	40.7489
12.993	35.1361
12.8	21.7934
12.614	17.0246
12.432	16.4104
12.256	19.3596
12.084	21.5754
11.918	23.5053
11.755	25.3769
11.598	27.3793
11.444	29.2272
11.294	32.4035
11.149	37.1107
11.007	40.568
10.868	38.6601
10.733	51.9393
10.602	66.8031
10.473	69.3951
10.348	56.9854
10.225	70.515
10.106	72.0289
9.989	71.6756
9.875	72.1334
9.763	70.6336
9.654	67.0208
9.547	61.4007
9.443	56.5399
9.341	59.9198
9.241	58.8148
9.143	52.6024
9.047	43.7719
8.954	34.7157
8.862	29.4684
8.772	27.1589
8.684	23.3701
8.597	17.5127
8.513	11.4536
8.43	7.5095
8.348	7.6294
8.268	8.9214
8.19	10.0307
8.113	10.9072
8.037	11.7077
7.963	12.3725
7.891	12.9206
7.819	13.3784
7.749	13.7563
7.68	14.1496
7.613	14.4807
7.546	14.7893
7.481	15.008
7.417	15.2783
7.353	15.499
7.291	15.7295
7.23	15.9607
7.17	16.0888
7.111	16.3154
7.053	16.416
6.996	16.635
6.94	16.8469
6.885	16.9892
6.83	17.0454
6.777	17.1752
6.724	17.3002
6.672	17.465
6.621	17.6079
6.571	17.5141
6.521	17.7919
6.472	17.9563
6.424	18.0034
6.377	18.0791
6.33	18.2084
6.284	18.2966
6.238	18.3867
6.194	18.413
6.15	18.4611
6.106	18.5493
6.063	18.6286
6.021	18.6369
5.979	18.6528
5.938	18.435
5.898	18.5546
5.858	18.6323
5.818	18.5754
5.779	18.6606
5.741	18.6945
5.703	18.75
5.666	18.7836
5.629	18.8667
5.592	18.9445
5.556	18.9221
5.521	19.0063
5.486	19.0302
5.451	19.0954
5.417	19.1137
5.383	19.1247
5.35	19.1176
5.317	19.1914
5.285	19.2404
5.252	19.2678
5.221	19.2868
5.189	19.3273
5.158	19.3408
5.128	19.3518
5.097	19.3586
5.068	19.3408
5.038	19.3237
5.009	19.3352
4.98	19.3222
4.951	19.3281
4.923	19.2656
4.895	19.268
4.868	19.2768
4.84	19.2844
4.814	19.2883
4.787	19.2976
4.76	19.3239
4.734	19.3598
4.709	19.3784
4.683	19.4033
4.658	19.4042
4.633	19.4443
4.608	19.4731
4.584	19.5051
4.56	19.54
4.536	19.5375
4.512	19.5576
4.488	19.5644
4.465	19.5698
4.442	19.5761
4.42	19.5539
4.397	19.5119
4.375	19.5185
4.353	19.2905
4.331	18.8872
4.309	18.3205
4.288	17.665
4.267	17.5473
4.246	17.2597
4.225	17.2504
4.205	18.757
4.184	19.5185
4.164	19.5322
4.144	19.5644
4.124	19.5654
4.105	19.5808
4.085	19.5502
4.066	19.591
4.047	19.5935
4.028	19.5947
4.009	19.5942
3.991	19.5959
3.973	19.6381
3.954	19.6206
3.936	19.6774
3.918	19.6508
3.901	19.6425
3.883	19.6528
3.866	19.6372
3.849	19.6459
3.832	19.6215
3.815	19.6249
3.798	19.6352
3.781	19.6176
3.765	19.6088
3.748	19.6196
3.732	19.56
3.716	19.5693
3.7	19.583
3.685	19.5595
3.669	19.5605
3.653	19.541
3.638	19.5439
3.623	19.5244
3.608	19.539
3.593	19.5205
3.578	19.5249
3.563	19.5239
3.548	19.5244
3.534	19.5478
3.519	19.5581
3.505	19.5822
3.491	19.5302
3.477	19.5422
3.463	19.5485
3.449	19.5483
3.435	19.5744
3.422	19.6147
3.408	19.517
3.395	19.4956
3.382	19.4626
3.369	19.4433
3.355	19.4101
3.342	19.3859
3.33	19.3874
3.317	19.35
3.304	19.3249
3.292	19.342
3.279	19.3071
3.267	19.3095
3.254	19.2875
3.242	19.2768
3.23	19.2661
3.218	19.2607
3.206	19.225
3.194	19.2526
3.182	19.2023
3.171	19.1958
3.159	19.2192
3.148	19.1875
3.136	19.2128
3.125	19.2014
3.114	19.1767
3.102	19.185
3.091	19.1518
3.08	19.1699
3.069	19.174
3.058	19.1406
3.048	19.1411
3.037	19.1186
3.026	19.1
3.016	19.0712
3.005	19.1054
2.995	19.0581
2.985	19.0246
2.974	19.0424
2.964	18.9609
2.954	18.9726
2.944	18.9106
2.934	18.8994
2.924	18.8779
2.914	18.8369
2.904	18.8498
2.895	18.8156
2.885	18.8107
2.875	18.7563
2.866	18.7561
2.856	18.7343
2.847	18.6923
2.838	18.6953
2.828	18.6669
2.819	18.6313
2.81	18.6269
2.801	18.6289
2.792	18.5966
2.783	18.54
2.774	18.559
2.765	18.6435
2.756	18.4765
2.747	18.4765
2.739	18.5429
2.73	18.4257
2.721	18.5234
2.713	18.52
2.704	18.3872
2.696	18.33
2.687	18.2231
2.679	18.246
2.671	18.3134
2.663	18.3012
2.654	18.3427
2.646	18.3227
2.638	18.3481
2.63	18.3955
2.622	18.3403
2.614	18.354
2.606	18.3994
2.599	18.2739
2.591	18.3129
2.583	18.4111
2.575	18.2324
2.568	18.2285
2.56	18.2187
2.553	18.3066
2.545	18.2504
2.538	18.2978
2.53	18.2348
2.523	18.2412
2.515	18.2334
2.508	18.2587
2.501	18.229
2.494	18.2758
2.486	18.2675
2.479	18.2939
2.472	18.2275
2.465	18.2617
2.458	18.2187
2.451	18.2251
2.444	18.1923
2.437	18.2695
2.43	18.2441
2.424	18.2636
2.417	18.2675
2.41	18.2402
2.403	18.1723
2.397	18.2675
2.39	18.2524
2.384	18.1718
2.377	18.2851
2.37	18.2441
2.364	18.2753
2.358	18.2773
2.351	18.248
2.345	18.2578
2.338	18.3105
2.332	18.2539
2.326	18.2793
2.32	18.3203
2.313	18.2265
2.307	18.2382
2.301	18.3173
2.295	18.333
2.289	18.3515
2.283	18.2421
2.277	18.3369
2.271	18.3125
2.265	18.3046
2.259	18.3173
2.253	18.3085
2.247	18.248
2.241	18.3593
2.236	18.372
2.23	18.3173
2.224	18.3798
2.218	18.2119
2.213	18.3798
2.207	18.3574
2.201	18.3593
2.196	18.2734
2.19	18.3837
2.185	18.4042
2.179	18.3945
2.174	18.2861
2.168	18.3339
2.163	18.3027
2.157	18.3046
2.152	18.3945
2.147	18.2773
2.141	18.2705
2.136	18.3134
2.131	18.3125
2.126	18.375
2.12	18.3691
2.115	18.2695
2.11	18.4277
2.105	18.2597
2.1	18.4306
2.095	18.3164
2.09	18.289
2.085	18.3144
2.079	18.2871
