Name: Hemimorphite Zn4Si2O7(OH)2.H2O
Type: Mineral
Class: Silicates
Subclass: Sorosilicates (Two isolated tetrahedra)
Particle Size: Fine  (0-74  Micrometers)
Sample No.: hemimor.1
Owner: JHU
Wavelength Range: IR
Origin: Mapimi, Durango, Mexico via the Smithsonian (sample
Description: The sample consisted of two white, translucent
Measurement: Bidirectional reflectance
X Units: Wavelength (micrometers)
Y Units: Reflectance (percent)
wavelength	value
25.0442	1.7148
24.3388	1.8379
23.6719	1.751
23.0407	1.6833
22.4422	1.6274
21.8741	1.5371
21.334	1.5605
20.8199	2.0413
20.33	2.0549
19.8627	1.8306
19.4163	1.6604
18.9896	1.5664
18.5812	1.4856
18.19	1.5088
17.815	1.5239
17.4551	1.3762
17.1094	1.179
16.7772	1.2227
16.4576	1.5378
16.15	1.6367
15.8537	1.2949
15.568	1.1956
15.2925	1.4004
15.0265	1.3723
14.7697	1.1958
14.5214	1.1431
14.2814	1.4311
14.0492	1.6873
13.8244	1.9817
13.6067	2.1692
13.3957	2.291
13.1912	2.4341
12.9929	2.5955
12.8004	2.6465
12.6135	2.6929
12.432	2.5867
12.2557	2.4248
12.0843	2.2888
11.9176	2.0469
11.7555	1.6665
11.5977	1.5198
11.444	1.678
11.2944	1.6099
11.1487	1.5193
11.0067	1.4297
10.8682	1.4587
10.7332	1.7073
10.6015	1.6868
10.473	1.6863
10.3476	1.7952
10.2251	1.9551
10.1056	2.0591
9.98873	2.0298
9.87458	1.6157
9.763	1.217
9.65392	0.9265
9.54724	0.8335
9.44291	1.0076
9.34082	1.1851
9.24091	1.1465
9.14312	1.3618
9.04739	1.9443
8.95363	2.3352
8.8618	2.0874
8.77183	1.8909
8.68368	1.9873
8.59727	2.2129
8.51257	2.801
8.42951	3.1958
8.34807	3.6099
8.26819	3.884
8.18981	4.1653
8.11292	4.5503
8.03745	5.0327
7.96337	5.3909
7.89064	5.8337
7.81924	6.2419
7.74911	6.4956
7.68023	6.8857
7.61256	7.3313
7.54608	7.7099
7.48074	7.9956
7.41653	8.1069
7.35341	7.914
7.29136	7.6636
7.23034	7.8276
7.17033	8.1933
7.11132	8.4753
7.05327	8.5412
6.99616	8.5029
6.93996	8.4148
6.88467	8.3701
6.83024	8.4402
6.77667	8.5295
6.72393	8.5759
6.67201	8.4858
6.62089	8.3191
6.57054	7.9189
6.52095	7.112
6.4721	6.5637
6.42398	6.9712
6.37657	7.3701
6.32986	7.3393
6.28382	6.883
6.23845	6.0276
6.19373	4.6733
6.14965	2.637
6.10619	1.6482
6.06334	3.5456
6.02109	5.2822
5.97942	6.5278
5.93832	7.4802
5.89778	8.1977
5.8578	8.685
5.81835	8.9345
5.77943	9.0525
5.74103	8.8352
5.70314	7.9626
5.66574	7.4548
5.62883	7.6553
5.5924	7.2107
5.55644	7.4507
5.52093	7.99
5.48588	8.1423
5.45127	8.1511
5.41709	7.7895
5.38334	7.3171
5.35	7.2458
5.31708	7.2724
5.28456	7.3039
5.25243	7.3064
5.2207	7.3716
5.18934	7.5061
5.15836	7.7678
5.12775	8.1064
5.09749	8.321
5.0676	8.4787
5.03805	8.6096
5.00884	8.6142
4.97998	8.4182
4.95144	8.4189
4.92322	8.553
4.89533	8.7319
4.86775	8.9226
4.84048	9.1435
4.81351	9.4472
4.78684	9.7854
4.76047	10.1487
4.73439	10.4848
4.70859	10.8169
4.68306	11.1616
4.65782	11.541
4.63284	11.9519
4.60814	12.3122
4.58369	12.6489
4.5595	12.9663
4.53557	13.2585
4.51188	13.5271
4.48845	13.8149
4.46525	14.0549
4.44229	14.3068
4.41957	14.5659
4.39708	14.8093
4.37481	15.0166
4.35277	15.197
4.33096	15.3591
4.30935	15.4931
4.28797	15.6364
4.26679	15.8027
4.24583	15.9389
4.22506	16.0795
4.2045	16.1987
4.18414	16.2959
4.16398	16.3925
4.14401	16.4633
4.12423	16.5432
4.10464	16.6162
4.08523	16.6811
4.066	16.7719
4.04696	16.8569
4.02809	16.9231
4.0094	16.9782
3.99088	17.0224
3.97253	17.0744
3.95435	17.1108
3.93634	17.1555
3.91848	17.1684
3.90079	17.1848
3.88326	17.1792
3.86589	17.1789
3.84867	17.1833
3.8316	17.1772
3.81468	17.1806
3.79791	17.1865
3.78129	17.1828
3.76482	17.163
3.74848	17.1276
3.73229	17.0883
3.71624	17.0305
3.70032	16.9492
3.68454	16.8791
3.6689	16.8281
3.65338	16.7732
3.638	16.7243
3.62275	16.635
3.60762	16.5346
3.59262	16.4423
3.57775	16.3461
3.56299	16.2224
3.54836	16.094
3.53385	15.9585
3.51945	15.7844
3.50517	15.5097
3.49101	15.3825
3.47696	15.2451
3.46303	15.0791
3.4492	14.8491
3.43549	14.5849
3.42188	14.2382
3.40838	14.0009
3.39499	13.8383
3.38171	13.5632
3.36852	13.3
3.35544	13.0107
3.34246	12.6977
3.32958	12.3257
3.3168	11.9477
3.30411	11.5625
3.29153	11.1487
3.27903	10.7207
3.26664	10.3081
3.25433	9.8645
3.24212	9.4272
3.23	8.9922
3.21797	8.5554
3.20603	8.0962
3.19418	7.6343
3.18241	7.1926
3.17074	6.7297
3.15914	6.2815
3.14763	5.8176
3.13621	5.404
3.12487	4.9685
3.11361	4.5171
3.10243	4.04
3.09133	3.6738
3.0803	3.5976
3.06936	3.5447
3.0585	3.3586
3.04771	3.1404
3.037	2.9377
3.02636	2.7454
3.0158	2.5688
3.00531	2.416
2.99489	2.2903
2.98454	2.1589
2.97427	2.0491
2.96407	1.9119
2.95393	1.7978
2.94387	1.6597
2.93387	1.55
2.92394	1.4539
2.91408	1.3616
2.90429	1.279
2.89456	1.2529
2.88489	1.2136
2.87529	1.2173
2.86576	1.2148
2.85628	1.2261
2.84687	1.2471
2.83752	1.2764
2.82823	1.3286
2.81901	1.3613
2.80984	1.4019
2.80073	1.4717
2.79168	1.5019
2.78269	1.562
2.77376	1.678
2.76488	1.8501
2.75606	2.1467
2.7473	2.6406
2.73859	3.2563
2.72994	4.0183
2.72134	4.8403
2.7128	5.7236
2.70431	6.5639
2.69587	7.3325
2.68748	8.0869
2.67915	8.7019
2.67087	9.2514
2.66264	9.7944
2.65446	10.2417
2.64633	10.6545
2.63825	11.0105
2.63021	11.3296
2.62223	11.6777
2.6143	11.9646
2.60641	12.2431
2.59857	12.5398
2.59078	12.8125
2.58304	13.0022
2.57534	13.2761
2.56768	13.5171
2.56008	13.7378
2.55251	13.9624
2.54499	14.219
2.53752	14.4607
2.53009	14.7014
2.5227	14.9572
2.51536	15.2116
2.50806	15.52
2.5008	15.8344
2.49358	16.1057
2.4864	16.4255
2.47927	16.6845
2.47218	16.9336
2.46512	17.1176
2.45811	17.3147
2.45114	17.4882
2.4442	17.6289
2.43731	17.7417
2.43045	17.8828
2.42363	18.0915
2.41685	18.2522
2.41011	18.4487
2.40341	18.6289
2.39674	18.7854
2.39011	18.9765
2.38352	19.1445
2.37696	19.3833
2.37044	19.6899
2.36395	19.999
2.35751	20.4086
2.35109	20.767
2.34471	21.059
2.33836	21.299
2.33205	21.5541
2.32578	21.7656
2.31953	21.9372
2.31332	22.0903
2.30714	22.1757
2.301	22.2524
2.29489	22.3566
2.28881	22.3979
2.28276	22.4086
2.27675	22.4601
2.27076	22.4182
2.26481	22.4423
2.25889	22.4465
2.253	22.4267
2.24714	22.3696
2.24131	22.3586
2.23551	22.3312
2.22974	22.2705
2.224	22.2246
2.21829	22.2817
2.21261	22.3098
2.20696	22.3583
2.20134	22.496
2.19574	22.6057
2.19018	22.7473
2.18464	22.8381
2.17913	23.0102
2.17365	23.1445
2.16819	23.3315
2.16277	23.4572
2.15737	23.5556
2.15199	23.5912
2.14665	23.7365
2.14133	23.8349
2.13603	23.9296
2.13077	24.1039
2.12552	24.2138
2.12031	24.2343
2.11512	24.2658
2.10995	24.3847
2.10481	24.4931
2.0997	24.5722
2.09461	24.676
2.08954	24.7316
2.0845	24.7314
2.07948	24.7006
