Name: Olivine (Fo92) (Fe+2,Mg)2SiO4
Type: Mineral
Class: Silicates
Subclass: Nesosilicates (Isolated tetrahedra); (Olivine Group)
Particle Size: Coarse  (75 - 250  Micrometers)
Sample No.: olivine.13
Owner: JHU
Wavelength Range: IR
Origin: Rockport, Massachusetts via the Smithsonian (sample no.
Description: The sample was a large black fragment. Millimeter-wide
Measurement: Bidirectional reflectance
X Units: Wavelength (micrometers)
Y Units: Reflectance (percent)
wavelength	value
25.0442	1.127
24.3388	1.8208
23.6719	2.0269
23.0407	2.135
22.4422	2.5312
21.8741	3.0771
21.334	4.1233
20.8199	4.435
20.33	5.0693
19.8627	6.1098
19.4163	6.229
18.9896	4.5322
18.5812	2.4946
18.19	1.6426
17.815	2.0037
17.4551	2.2583
17.1094	2.6658
16.7772	2.512
16.4576	1.4546
16.15	1.1099
15.8537	1.2095
15.568	1.2981
15.2925	1.3987
15.0265	1.4768
14.7697	1.5894
14.5214	1.6738
14.2814	1.7346
14.0492	1.8096
13.8244	1.845
13.6067	1.9248
13.3957	2.0068
13.1912	2.0544
12.9929	2.196
12.8004	2.3127
12.6135	2.4436
12.432	2.6934
12.2557	3.0256
12.0843	3.8315
11.9176	2.831
11.7555	4.0459
11.5977	5.9575
11.444	7.0461
11.2944	7.9531
11.1487	8.3616
11.0067	8.2124
10.8682	5.4031
10.7332	4.4949
10.6015	6.7055
10.473	6.6421
10.3476	3.8506
10.2251	2.5889
10.1056	2.2065
9.98873	2.4309
9.87458	2.9211
9.763	2.5588
9.65392	1.6682
9.54724	1.1528
9.44291	0.9724
9.34082	0.9463
9.24091	1.0085
9.14312	1.0959
9.04739	1.1096
8.95363	1.1323
8.8618	1.1807
8.77183	1.2361
8.68368	1.282
8.59727	1.2903
8.51257	1.3147
8.42951	1.3293
8.34807	1.3733
8.26819	1.4004
8.18981	1.4299
8.11292	1.4194
8.03745	1.4185
7.96337	1.4058
7.89064	1.396
7.81924	1.4082
7.74911	1.4199
7.68023	1.4463
7.61256	1.4714
7.54608	1.4966
7.48074	1.5137
7.41653	1.5332
7.35341	1.5559
7.29136	1.5793
7.23034	1.5874
7.17033	1.6028
7.11132	1.6208
7.05327	1.6147
6.99616	1.6348
6.93996	1.6479
6.88467	1.6501
6.83024	1.637
6.77667	1.6267
6.72393	1.6367
6.67201	1.6321
6.62089	1.637
6.57054	1.6348
6.52095	1.6333
6.4721	1.6352
6.42398	1.624
6.37657	1.6199
6.32986	1.6099
6.28382	1.6023
6.23845	1.5801
6.19373	1.5654
6.14965	1.5261
6.10619	1.4766
6.06334	1.4795
6.02109	1.4968
5.97942	1.4993
5.93832	1.4963
5.89778	1.5073
5.8578	1.5193
5.81835	1.5061
5.77943	1.488
5.74103	1.4797
5.70314	1.4758
5.66574	1.4936
5.62883	1.5027
5.5924	1.51
5.55644	1.5144
5.52093	1.5242
5.48588	1.5251
5.45127	1.5381
5.41709	1.5408
5.38334	1.5503
5.35	1.5603
5.31708	1.5735
5.28456	1.5727
5.25243	1.5872
5.2207	1.5937
5.18934	1.5962
5.15836	1.6086
5.12775	1.6252
5.09749	1.6296
5.0676	1.6467
5.03805	1.6526
5.00884	1.6567
4.97998	1.665
4.95144	1.6724
4.92322	1.6833
4.89533	1.6814
4.86775	1.6877
4.84048	1.6999
4.81351	1.7107
4.78684	1.7253
4.76047	1.7358
4.73439	1.7322
4.70859	1.75
4.68306	1.7551
4.65782	1.7766
4.63284	1.7795
4.60814	1.7935
4.58369	1.8091
4.5595	1.8127
4.53557	1.8149
4.51188	1.8337
4.48845	1.8447
4.46525	1.8535
4.44229	1.8691
4.41957	1.8772
4.39708	1.9019
4.37481	1.9116
4.35277	1.9292
4.33096	1.9397
4.30935	1.9521
4.28797	1.9746
4.26679	1.9851
4.24583	1.9973
4.22506	2.0185
4.2045	2.0334
4.18414	2.0496
4.16398	2.0742
4.14401	2.085
4.12423	2.0979
4.10464	2.113
4.08523	2.1306
4.066	2.1526
4.04696	2.175
4.02809	2.2058
4.0094	2.2158
3.99088	2.238
3.97253	2.259
3.95435	2.2764
3.93634	2.2964
3.91848	2.3166
3.90079	2.3357
3.88326	2.3623
3.86589	2.3794
3.84867	2.4014
3.8316	2.415
3.81468	2.4368
3.79791	2.4629
3.78129	2.4756
3.76482	2.4927
3.74848	2.5168
3.73229	2.5383
3.71624	2.5613
3.70032	2.5837
3.68454	2.6035
3.6689	2.6304
3.65338	2.6421
3.638	2.6606
3.62275	2.6973
3.60762	2.7163
3.59262	2.7231
3.57775	2.7539
3.56299	2.7712
3.54836	2.7932
3.53385	2.7996
3.51945	2.8166
3.50517	2.8313
3.49101	2.8557
3.47696	2.8747
3.46303	2.8806
3.4492	2.9011
3.43549	2.9106
3.42188	2.9285
3.40838	2.9402
3.39499	2.939
3.38171	2.9643
3.36852	2.9719
3.35544	2.9829
3.34246	2.9927
3.32958	3.0137
3.3168	3.0134
3.30411	3.0347
3.29153	3.0391
3.27903	3.0452
3.26664	3.0549
3.25433	3.0644
3.24212	3.0642
3.23	3.072
3.21797	3.0774
3.20603	3.0837
3.19418	3.0945
3.18241	3.0969
3.17074	3.0884
3.15914	3.0969
3.14763	3.0952
3.13621	3.0984
3.12487	3.0889
3.11361	3.0857
3.10243	3.0867
3.09133	3.0867
3.0803	3.0796
3.06936	3.0725
3.0585	3.073
3.04771	3.0662
3.037	3.0659
3.02636	3.0579
3.0158	3.0505
3.00531	3.0334
2.99489	3.0344
2.98454	3.0268
2.97427	3.0181
2.96407	3.012
2.95393	2.9919
2.94387	3.0019
2.93387	2.9929
2.92394	2.9958
2.91408	2.9788
2.90429	2.9792
2.89456	2.9941
2.88489	2.9929
2.87529	2.9827
2.86576	2.9629
2.85628	2.9497
2.84687	2.9231
2.83752	2.8674
2.82823	2.7864
2.81901	2.7537
2.80984	2.7251
2.80073	2.6958
2.79168	2.6614
2.78269	2.6428
2.77376	2.6218
2.76488	2.4924
2.75606	2.6733
2.7473	2.8508
2.73859	3.1902
2.72994	3.3948
2.72134	3.4639
2.7128	3.4668
2.70431	3.4836
2.69587	3.4836
2.68748	3.5005
2.67915	3.5032
2.67087	3.4954
2.66264	3.4997
2.65446	3.4922
2.64633	3.4973
2.63825	3.5049
2.63021	3.4766
2.62223	3.4944
2.6143	3.4934
2.60641	3.4802
2.59857	3.4792
2.59078	3.4946
2.58304	3.4905
2.57534	3.5041
2.56768	3.4907
2.56008	3.4924
2.55251	3.488
2.54499	3.49
2.53752	3.4858
2.53009	3.4814
2.5227	3.4822
2.51536	3.4917
2.50806	3.4914
2.5008	3.4934
2.49358	3.4758
2.4864	3.5076
2.47927	3.4993
2.47218	3.5063
2.46512	3.4961
2.45811	3.522
2.45114	3.5156
2.4442	3.5071
2.43731	3.5183
2.43045	3.5134
2.42363	3.5071
2.41685	3.5127
2.41011	3.5327
2.40341	3.5283
2.39674	3.5286
2.39011	3.5225
2.38352	3.5381
2.37696	3.542
2.37044	3.5271
2.36395	3.5229
2.35751	3.5098
2.35109	3.5154
2.34471	3.5085
2.33836	3.5408
2.33205	3.5342
2.32578	3.5381
2.31953	3.5464
2.31332	3.5398
2.30714	3.5666
2.301	3.5884
2.29489	3.5769
2.28881	3.5864
2.28276	3.5959
2.27675	3.5901
2.27076	3.6162
2.26481	3.615
2.25889	3.6184
2.253	3.6152
2.24714	3.6023
2.24131	3.6518
2.23551	3.6306
2.22974	3.6274
2.224	3.686
2.21829	3.6221
2.21261	3.6538
2.20696	3.6374
2.20134	3.6421
2.19574	3.6731
2.19018	3.6384
2.18464	3.6528
2.17913	3.6423
2.17365	3.6509
2.16819	3.6826
2.16277	3.6753
2.15737	3.6899
2.15199	3.6853
2.14665	3.6753
2.14133	3.6536
2.13603	3.6631
2.13077	3.6616
2.12552	3.6684
2.12031	3.6755
2.11512	3.6682
2.10995	3.6653
2.10481	3.6728
2.0997	3.6609
2.09461	3.6919
2.08954	3.6868
2.0845	3.6821
2.07948	3.6665
