Name: Ilmenite Fe+2TiO3
Type: Mineral
Class: Oxides
Subclass: (Hematite Group)
Particle Size: Solid (fracture surface)
Sample No.: ilmenite.1
Owner: JHU
Wavelength Range: IR
Origin: Ilmen Mountains, Urals, USSR via the Smithsonian (sample no.
Description: The sample consisted of two large and several smaller
Measurement: Bidirectional reflectance
X Units: Wavelength (micrometers)
Y Units: Reflectance (percent)
wavelength	value
25.0442	28.9062
24.3388	33.9569
23.6719	36.8036
23.0407	38.2875
22.4422	36.8271
21.8741	33.7629
21.334	31.1984
20.8199	30.4701
20.33	31.245
19.8627	32.496
19.4163	34.4789
18.9896	35.7592
18.5812	36.5844
18.19	36.9633
17.815	37.1396
17.4551	36.7941
17.1094	35.6554
16.7772	34.4623
16.4576	34.2091
16.15	34.5038
15.8537	34.5993
15.568	34.2636
15.2925	33.5829
15.0265	32.6003
14.7697	30.8656
14.5214	28.3669
14.2814	25.6032
14.0492	22.5288
13.8244	18.9162
13.6067	14.8442
13.3957	10.2988
13.1912	6.5454
12.9929	4.345
12.8004	3.2451
12.6135	2.7436
12.432	2.697
12.2557	2.9148
12.0843	3.2727
11.9176	3.6289
11.7555	3.9892
11.5977	4.3389
11.444	4.6653
11.2944	4.9756
11.1487	5.2739
11.0067	5.5288
10.8682	5.81
10.7332	6.0766
10.6015	6.3205
10.473	6.5466
10.3476	6.7756
10.2251	6.9751
10.1056	7.1645
9.98873	7.3484
9.87458	7.5149
9.763	7.6894
9.65392	7.875
9.54724	8.0381
9.44291	8.2192
9.34082	8.3752
9.24091	8.5083
9.14312	8.6333
9.04739	8.7693
8.95363	8.8347
8.8618	8.9465
8.77183	9.0552
8.68368	9.1379
8.59727	9.2268
8.51257	9.3205
8.42951	9.4175
8.34807	9.4992
8.26819	9.5927
8.18981	9.6823
8.11292	9.7727
8.03745	9.8562
7.96337	9.9487
7.89064	10.031
7.81924	10.0984
7.74911	10.1272
7.68023	10.1452
7.61256	10.1753
7.54608	10.2258
7.48074	10.2864
7.41653	10.3528
7.35341	10.4096
7.29136	10.4658
7.23034	10.5193
7.17033	10.5661
7.11132	10.6352
7.05327	10.6838
6.99616	10.7414
6.93996	10.8181
6.88467	10.8777
6.83024	10.9258
6.77667	10.947
6.72393	11.0061
6.67201	11.0556
6.62089	11.1081
6.57054	11.1479
6.52095	11.2251
6.4721	11.2766
6.42398	11.3034
6.37657	11.3767
6.32986	11.4438
6.28382	11.4758
6.23845	11.5232
6.19373	11.5527
6.14965	11.5925
6.10619	11.6157
6.06334	11.6601
6.02109	11.7011
5.97942	11.7378
5.93832	11.7551
5.89778	11.8203
5.8578	11.914
5.81835	11.9865
5.77943	11.9878
5.74103	11.903
5.70314	11.925
5.66574	12.0097
5.62883	12.0549
5.5924	12.1128
5.55644	12.1423
5.52093	12.1733
5.48588	12.2121
5.45127	12.2258
5.41709	12.2492
5.38334	12.2856
5.35	12.3176
5.31708	12.3667
5.28456	12.3899
5.25243	12.4089
5.2207	12.435
5.18934	12.458
5.15836	12.4843
5.12775	12.5024
5.09749	12.5168
5.0676	12.5412
5.03805	12.5605
5.00884	12.5942
4.97998	12.6167
4.95144	12.6443
4.92322	12.6648
4.89533	12.707
4.86775	12.7339
4.84048	12.758
4.81351	12.7778
4.78684	12.8054
4.76047	12.8266
4.73439	12.852
4.70859	12.8628
4.68306	12.8982
4.65782	12.9206
4.63284	12.9406
4.60814	12.9751
4.58369	12.9821
4.5595	13.0014
4.53557	13.011
4.51188	13.0395
4.48845	13.06
4.46525	13.0827
4.44229	13.0949
4.41957	13.1128
4.39708	13.1291
4.37481	13.1364
4.35277	13.1533
4.33096	13.1677
4.30935	13.1828
4.28797	13.1909
4.26679	13.2182
4.24583	13.2356
4.22506	13.2678
4.2045	13.2883
4.18414	13.3159
4.16398	13.3471
4.14401	13.3591
4.12423	13.3762
4.10464	13.3877
4.08523	13.4255
4.066	13.4292
4.04696	13.4587
4.02809	13.4797
4.0094	13.4953
3.99088	13.5009
3.97253	13.5153
3.95435	13.5363
3.93634	13.5503
3.91848	13.5727
3.90079	13.5852
3.88326	13.5969
3.86589	13.6091
3.84867	13.6242
3.8316	13.6408
3.81468	13.6499
3.79791	13.6823
3.78129	13.6989
3.76482	13.7253
3.74848	13.7409
3.73229	13.7663
3.71624	13.7636
3.70032	13.7881
3.68454	13.8068
3.6689	13.8225
3.65338	13.8625
3.638	13.8681
3.62275	13.9028
3.60762	13.9294
3.59262	13.9465
3.57775	13.9611
3.56299	13.988
3.54836	14.0034
3.53385	14.0234
3.51945	14.0512
3.50517	14.0656
3.49101	14.0288
3.47696	14.0442
3.46303	14.0661
3.4492	14.101
3.43549	14.1135
3.42188	14.1108
3.40838	14.0422
3.39499	14.0512
3.38171	14.0603
3.36852	14.0139
3.35544	14.0297
3.34246	14.081
3.32958	14.1167
3.3168	14.1545
3.30411	14.1897
3.29153	14.216
3.27903	14.2473
3.26664	14.2702
3.25433	14.2802
3.24212	14.3034
3.23	14.3252
3.21797	14.3559
3.20603	14.3767
3.19418	14.4028
3.18241	14.4213
3.17074	14.4377
3.15914	14.4543
3.14763	14.4638
3.13621	14.477
3.12487	14.4885
3.11361	14.5122
3.10243	14.539
3.09133	14.542
3.0803	14.5637
3.06936	14.5788
3.0585	14.6013
3.04771	14.6323
3.037	14.6416
3.02636	14.7006
3.0158	14.697
3.00531	14.6987
2.99489	14.7529
2.98454	14.7778
2.97427	14.8012
2.96407	14.8339
2.95393	14.8481
2.94387	14.8701
2.93387	14.8999
2.92394	14.9013
2.91408	14.9406
2.90429	14.9775
2.89456	15.0163
2.88489	15.0395
2.87529	15.0571
2.86576	15.0893
2.85628	15.1067
2.84687	15.1391
2.83752	15.1338
2.82823	15.143
2.81901	15.1753
2.80984	15.1994
2.80073	15.2326
2.79168	15.2485
2.78269	15.2602
2.77376	15.291
2.76488	15.2993
2.75606	15.309
2.7473	15.3696
2.73859	15.3828
2.72994	15.4301
2.72134	15.4438
2.7128	15.476
2.70431	15.4941
2.69587	15.5214
2.68748	15.5588
2.67915	15.5478
2.67087	15.6032
2.66264	15.6435
2.65446	15.6718
2.64633	15.6765
2.63825	15.7255
2.63021	15.6933
2.62223	15.7441
2.6143	15.7553
2.60641	15.7561
2.59857	15.8281
2.59078	15.8557
2.58304	15.8383
2.57534	15.8928
2.56768	15.9145
2.56008	15.8979
2.55251	15.9404
2.54499	15.9829
2.53752	15.977
2.53009	15.9604
2.5227	16.0207
2.51536	16.0229
2.50806	16.0412
2.5008	16.0776
2.49358	16.1098
2.4864	16.1137
2.47927	16.1096
2.47218	16.1613
2.46512	16.1152
2.45811	16.1543
2.45114	16.1904
2.4442	16.1738
2.43731	16.1613
2.43045	16.2089
2.42363	16.2285
2.41685	16.2629
2.41011	16.2778
2.40341	16.2392
2.39674	16.2121
2.39011	16.2285
2.38352	16.257
2.37696	16.2753
2.37044	16.2756
2.36395	16.267
2.35751	16.2841
2.35109	16.3029
2.34471	16.3156
2.33836	16.2998
2.33205	16.2639
2.32578	16.3095
2.31953	16.27
2.31332	16.2436
2.30714	16.2802
2.301	16.3076
2.29489	16.2993
2.28881	16.3481
2.28276	16.3061
2.27675	16.312
2.27076	16.2563
2.26481	16.267
2.25889	16.3325
2.253	16.27
2.24714	16.2656
2.24131	16.2343
2.23551	16.2353
2.22974	16.2509
2.224	16.2197
2.21829	16.2353
2.21261	16.2402
2.20696	16.227
2.20134	16.2036
2.19574	16.1982
2.19018	16.2544
2.18464	16.2295
2.17913	16.1738
2.17365	16.1938
2.16819	16.2236
2.16277	16.1992
2.15737	16.1601
2.15199	16.1357
2.14665	16.0786
2.14133	16.0918
2.13603	16.1562
2.13077	16.102
2.12552	16.167
2.12031	16.1508
2.11512	16.1211
2.10995	16.1254
2.10481	16.1411
2.0997	16.1489
2.09461	16.1157
2.08954	16.0976
2.0845	16.0449
2.07948	16.0551
