Name: Hornblende Ca2(Fe+2,Mg)4Al(Si7Al)O22(OH,F)2
Type: Mineral
Class: Silicates
Subclass: Inosilicates (Amphibole Group)
Particle Size: Fine  (0-74  micrometers)
Sample No.: hornblen.1
Owner: JHU
Wavelength Range: IR
Origin: Gore Mountain, New York via Hunt and Salisbury Collection,
Description: The specimen was a cluster of very dark green single
Measurement: Bidirectional reflectance
X Units: Wavelength (micrometers)
Y Units: Reflectance (percent)
wavelength	value
25.044	2.9463
24.339	2.8423
23.672	2.8325
23.041	3.0161
22.442	3.0513
21.874	3.365
21.334	3.3816
20.82	3.4172
20.33	3.21
19.863	3.2395
19.416	3.3804
18.99	3.5591
18.581	3.7124
18.19	3.7558
17.815	3.7602
17.455	3.2881
17.109	2.4792
16.777	1.6838
16.458	1.3787
16.15	1.3845
15.854	1.3362
15.568	1.3684
15.292	1.3989
15.027	1.4478
14.77	1.4387
14.521	1.4866
14.281	1.5488
14.049	1.6951
13.824	1.7805
13.607	1.6519
13.396	1.602
13.191	1.709
12.993	1.8584
12.8	2.0005
12.614	2.1013
12.432	2.1704
12.256	2.2544
12.084	2.3064
11.918	2.2402
11.755	2.0815
11.598	2.0373
11.444	1.9907
11.294	1.977
11.149	1.928
11.007	1.9028
10.868	1.9644
10.733	2.1094
10.602	2.26
10.473	2.4116
10.348	2.5247
10.225	2.5815
10.106	2.5327
9.9887	2.4377
9.8746	2.3237
9.763	2.3044
9.6539	2.4131
9.5472	2.4976
9.4429	2.4753
9.3408	2.4087
9.2409	2.3301
9.1431	2.3455
9.0474	2.4394
8.9536	2.4707
8.8618	2.4177
8.7718	2.655
8.6837	2.511
8.5973	1.791
8.5126	1.5579
8.4295	1.8061
8.3481	2.2861
8.2682	2.7861
8.1898	3.2634
8.1129	3.686
8.0374	4.0647
7.9634	4.4062
7.8906	4.7065
7.8192	5.0105
7.7491	5.2851
7.6802	5.5486
7.6126	5.7729
7.5461	5.9634
7.4807	6.1816
7.4165	6.418
7.3534	6.6208
7.2914	6.7793
7.2303	6.9353
7.1703	7.0959
7.1113	7.2632
7.0533	7.415
6.9962	7.5513
6.94	7.6848
6.8847	7.8096
6.8302	7.9189
6.7767	8.0202
6.7239	8.0327
6.672	8.0097
6.6209	7.9956
6.5705	7.9336
6.5209	7.8125
6.4721	7.6909
6.424	7.573
6.3766	7.4797
6.3299	7.4072
6.2838	7.3616
6.2385	7.3432
6.1937	7.374
6.1496	7.4143
6.1062	7.5132
6.0633	7.623
6.0211	7.7002
5.9794	7.8169
5.9383	7.9919
5.8978	8.1714
5.8578	8.2991
5.8184	8.3786
5.7794	8.5036
5.741	8.6719
5.7031	8.8642
5.6657	9.105
5.6288	9.3969
5.5924	9.6474
5.5564	9.8242
5.5209	9.9739
5.4859	10.042
5.4513	10.116
5.4171	10.156
5.3833	10.165
5.35	10.175
5.3171	10.226
5.2846	10.263
5.2524	10.33
5.2207	10.362
5.1893	10.38
5.1584	10.398
5.1277	10.413
5.0975	10.455
5.0676	10.542
5.038	10.679
5.0088	10.826
4.98	10.97
4.9514	11.136
4.9232	11.348
4.8953	11.572
4.8678	11.848
4.8405	12.099
4.8135	12.363
4.7868	12.632
4.7605	12.881
4.7344	13.162
4.7086	13.429
4.6831	13.696
4.6578	13.946
4.6328	14.196
4.6081	14.428
4.5837	14.616
4.5595	14.792
4.5356	14.952
4.5119	15.077
4.4884	15.17
4.4652	15.254
4.4423	15.327
4.4196	15.419
4.3971	15.496
4.3748	15.545
4.3528	15.575
4.331	15.6
4.3094	15.648
4.288	15.682
4.2668	15.729
4.2458	15.759
4.2251	15.801
4.2045	15.83
4.1841	15.863
4.164	15.888
4.144	15.928
4.1242	15.948
4.1046	15.99
4.0852	16.029
4.066	16.053
4.047	16.081
4.0281	16.104
4.0094	16.108
3.9909	16.067
3.9725	16.094
3.9544	16.152
3.9363	16.208
3.9185	16.253
3.9008	16.304
3.8833	16.325
3.8659	16.344
3.8487	16.355
3.8316	16.367
3.8147	16.391
3.7979	16.411
3.7813	16.428
3.7648	16.44
3.7485	16.446
3.7323	16.44
3.7162	16.429
3.7003	16.437
3.6845	16.43
3.6689	16.428
3.6534	16.427
3.638	16.43
3.6227	16.41
3.6076	16.422
3.5926	16.401
3.5777	16.385
3.563	16.372
3.5484	16.338
3.5338	16.32
3.5195	16.275
3.5052	16.216
3.491	16.208
3.477	16.176
3.463	16.171
3.4492	16.152
3.4355	16.089
3.4219	16.03
3.4084	16.008
3.395	16.023
3.3817	16.015
3.3685	16.039
3.3554	16.017
3.3425	16.013
3.3296	16.031
3.3168	16.011
3.3041	16.004
3.2915	15.963
3.279	15.941
3.2666	15.915
3.2543	15.879
3.2421	15.87
3.23	15.854
3.218	15.829
3.206	15.814
3.1942	15.788
3.1824	15.764
3.1707	15.734
3.1591	15.691
3.1476	15.628
3.1362	15.589
3.1249	15.545
3.1136	15.513
3.1024	15.492
3.0913	15.455
3.0803	15.41
3.0694	15.376
3.0585	15.322
3.0477	15.256
3.037	15.193
3.0264	15.109
3.0158	15.018
3.0053	14.915
2.9949	14.841
2.9845	14.763
2.9743	14.656
2.9641	14.544
2.9539	14.429
2.9439	14.307
2.9339	14.229
2.9239	14.173
2.9141	14.17
2.9043	14.152
2.8946	14.131
2.8849	14.079
2.8753	14.007
2.8658	13.949
2.8563	13.915
2.8469	13.813
2.8375	13.681
2.8282	13.552
2.819	13.44
2.8098	13.342
2.8007	13.085
2.7917	12.484
2.7827	11.409
2.7738	9.987
2.7649	8.4692
2.7561	7.8247
2.7473	7.4944
2.7386	7.2219
2.7299	7.2102
2.7213	7.414
2.7128	8.0149
2.7043	8.8984
2.6959	10.441
2.6875	12.934
2.6791	15.361
2.6709	16.151
2.6626	16.211
2.6545	16.201
2.6463	16.161
2.6382	16.176
2.6302	16.185
2.6222	16.161
2.6143	16.139
2.6064	16.12
2.5986	16.088
2.5908	16.062
2.583	16.017
2.5753	15.98
2.5677	15.925
2.5601	15.894
2.5525	15.853
2.545	15.824
2.5375	15.75
2.5301	15.718
2.5227	15.644
2.5154	15.558
2.5081	15.521
2.5008	15.473
2.4936	15.434
2.4864	15.346
2.4793	15.308
2.4722	15.263
2.4651	15.173
2.4581	15.144
2.4511	15.125
2.4442	15.034
2.4373	14.987
2.4305	14.927
2.4236	14.802
2.4169	14.704
2.4101	14.559
2.4034	14.436
2.3967	14.267
2.3901	14.207
2.3835	14.197
2.377	14.28
2.3704	14.4
2.364	14.387
2.3575	14.315
2.3511	14.228
2.3447	14.092
2.3384	13.947
2.3321	13.816
2.3258	13.755
2.3195	13.832
2.3133	13.885
2.3071	13.995
2.301	14.073
2.2949	14.212
2.2888	14.39
2.2828	14.503
2.2767	14.609
2.2708	14.633
2.2648	14.632
2.2589	14.583
2.253	14.527
2.2471	14.58
2.2413	14.668
2.2355	14.753
2.2297	14.746
2.224	14.769
2.2183	14.787
2.2126	14.792
2.207	14.788
2.2013	14.759
2.1957	14.788
2.1902	14.818
2.1846	14.809
2.1791	14.817
2.1736	14.803
2.1682	14.823
2.1628	14.83
2.1574	14.879
2.152	14.83
2.1466	14.793
2.1413	14.815
2.136	14.817
2.1308	14.785
2.1255	14.823
2.1203	14.834
2.1151	14.855
2.11	14.833
2.1048	14.854
2.0997	14.871
2.0946	14.901
2.0895	14.938
2.0845	14.918
2.0795	14.915
