Name: Zoisite (var. tanzanite) Ca2Al3(SiO4)3(OH)
Type: Mineral
Class: Silicates
Particle Size: Coarse  (75 - 250 Micrometers)
Sample No.: zoisite.1
Owner: JHU
Wavelength Range: IR
Origin: Arusha, Tanzania via the Smithsonian (sample no. NMNH
Description: The sample consisted of five euhedral, violet-blue
Measurement: Bidirectional reflectance
X Units: Wavelength (micrometers)
Y Units: Reflectance (percent)
wavelength	value
25.0442	8.3296
24.3388	9.0381
23.6719	5.041
23.0407	4.9966
22.4422	7.1887
21.8741	8.3962
21.334	7.3823
20.8199	6.0163
20.33	4.3533
19.8627	4.6243
19.4163	5.9087
18.9896	4.2334
18.5812	4.0823
18.19	5.7912
17.815	7.4875
17.4551	10.0097
17.1094	10.3073
16.7772	6.7134
16.4576	5.7959
16.15	6.0598
15.8537	6.885
15.568	4.7168
15.2925	5.3613
15.0265	5.4724
14.7697	6.5522
14.5214	5.6321
14.2814	4.834
14.0492	3.4563
13.8244	3.7678
13.6067	2.0664
13.3957	2.0432
13.1912	2.5308
12.9929	2.1435
12.8004	2.2908
12.6135	2.1028
12.432	2.396
12.2557	2.7261
12.0843	3.0471
11.9176	3.3735
11.7555	3.8242
11.5977	4.7392
11.444	4.6904
11.2944	5.6396
11.1487	7.5202
11.0067	6.9485
10.8682	5.6973
10.7332	6.2817
10.6015	8.167
10.473	8.3852
10.3476	8.9841
10.2251	9.488
10.1056	8.8496
9.98873	8.3335
9.87458	6.6152
9.763	4.9624
9.65392	3.2893
9.54724	2.2407
9.44291	1.8059
9.34082	1.9805
9.24091	2.4341
9.14312	3.3381
9.04739	6.323
8.95363	7.6186
8.8618	8.5783
8.77183	8.5786
8.68368	7.5378
8.59727	6.9848
8.51257	5.2229
8.42951	2.3999
8.34807	0.9197
8.26819	0.4731
8.18981	0.5337
8.11292	0.6663
8.03745	0.7849
7.96337	0.906
7.89064	1.0088
7.81924	1.1162
7.74911	1.2219
7.68023	1.3225
7.61256	1.3957
7.54608	1.4954
7.48074	1.5498
7.41653	1.6201
7.35341	1.6758
7.29136	1.7041
7.23034	1.7434
7.17033	1.7881
7.11132	1.8362
7.05327	1.8689
6.99616	1.8806
6.93996	1.9021
6.88467	1.9351
6.83024	1.9829
6.77667	2.0317
6.72393	2.0791
6.67201	2.1143
6.62089	2.1221
6.57054	2.0959
6.52095	2.135
6.4721	2.1882
6.42398	2.2854
6.37657	2.3931
6.32986	2.5259
6.28382	2.6013
6.23845	2.6645
6.19373	2.7043
6.14965	2.7585
6.10619	2.8057
6.06334	2.7978
6.02109	2.6794
5.97942	2.5391
5.93832	2.3643
5.89778	2.3315
5.8578	2.46
5.81835	2.5027
5.77943	2.4612
5.74103	2.4285
5.70314	2.3762
5.66574	2.2903
5.62883	2.2156
5.5924	2.2053
5.55644	2.2712
5.52093	2.3508
5.48588	2.4426
5.45127	2.5195
5.41709	2.5581
5.38334	2.6414
5.35	2.7222
5.31708	2.8572
5.28456	3.0456
5.25243	3.0337
5.2207	3.1216
5.18934	3.3613
5.15836	3.7549
5.12775	4.0637
5.09749	4.2014
5.0676	4.2475
5.03805	4.0759
5.00884	3.8689
4.97998	4.06
4.95144	4.3225
4.92322	4.404
4.89533	4.3669
4.86775	4.3999
4.84048	4.4453
4.81351	4.4634
4.78684	4.3784
4.76047	4.1946
4.73439	3.8999
4.70859	3.5022
4.68306	2.8569
4.65782	2.8809
4.63284	2.7715
4.60814	2.6089
4.58369	2.7371
4.5595	3.0559
4.53557	3.3508
4.51188	3.5691
4.48845	3.7996
4.46525	4.1443
4.44229	4.4692
4.41957	4.6687
4.39708	4.8125
4.37481	5.0144
4.35277	5.2541
4.33096	5.4726
4.30935	5.645
4.28797	5.7641
4.26679	5.862
4.24583	5.9639
4.22506	6
4.2045	5.9148
4.18414	5.9004
4.16398	5.9104
4.14401	5.9731
4.12423	6.0659
4.10464	6.1675
4.08523	6.2229
4.066	6.1682
4.04696	6.0627
4.02809	5.9646
4.0094	5.9328
3.99088	5.9958
3.97253	6.0613
3.95435	6.0591
3.93634	6.0044
3.91848	5.9282
3.90079	5.7881
3.88326	5.6365
3.86589	5.5032
3.84867	5.3669
3.8316	5.2429
3.81468	5.1492
3.79791	5.0334
3.78129	4.9057
3.76482	4.7724
3.74848	4.6677
3.73229	4.6064
3.71624	4.5652
3.70032	4.5432
3.68454	4.4905
3.6689	4.4653
3.65338	4.4104
3.638	4.3738
3.62275	4.3562
3.60762	4.3332
3.59262	4.2937
3.57775	4.227
3.56299	4.1299
3.54836	4.0229
3.53385	3.9011
3.51945	3.8237
3.50517	3.7756
3.49101	3.739
3.47696	3.6916
3.46303	3.6235
3.4492	3.5569
3.43549	3.4973
3.42188	3.4551
3.40838	3.4131
3.39499	3.3721
3.38171	3.3538
3.36852	3.3103
3.35544	3.2549
3.34246	3.2085
3.32958	3.1404
3.3168	3.0566
3.30411	2.9585
3.29153	2.8555
3.27903	2.7903
3.26664	2.7305
3.25433	2.7458
3.24212	2.7778
3.23	2.7798
3.21797	2.7454
3.20603	2.6894
3.19418	2.6103
3.18241	2.5122
3.17074	2.3784
3.15914	2.0862
3.14763	1.8935
3.13621	1.9119
3.12487	2.0222
3.11361	2.1333
3.10243	2.2007
3.09133	2.2292
3.0803	2.2312
3.06936	2.2202
3.0585	2.249
3.04771	2.3054
3.037	2.3747
3.02636	2.4473
3.0158	2.5181
3.00531	2.5869
2.99489	2.6514
2.98454	2.7163
2.97427	2.7952
2.96407	2.8437
2.95393	2.8835
2.94387	2.9448
2.93387	3.0063
2.92394	3.0854
2.91408	3.1453
2.90429	3.2226
2.89456	3.2671
2.88489	3.3152
2.87529	3.3967
2.86576	3.4817
2.85628	3.5852
2.84687	3.7073
2.83752	3.834
2.82823	3.9397
2.81901	3.9438
2.80984	4.0535
2.80073	4.2392
2.79168	4.362
2.78269	4.457
2.77376	4.5349
2.76488	4.592
2.75606	4.5952
2.7473	4.685
2.73859	4.7849
2.72994	4.8931
2.72134	5.0408
2.7128	5.2495
2.70431	5.5359
2.69587	5.8725
2.68748	6.2256
2.67915	6.6177
2.67087	7.0586
2.66264	7.4768
2.65446	7.8369
2.64633	8.1567
2.63825	8.3652
2.63021	8.3293
2.62223	8.1428
2.6143	8.0923
2.60641	8.4065
2.59857	8.7947
2.59078	8.9216
2.58304	8.9841
2.57534	9.1838
2.56768	9.5849
2.56008	10.0569
2.55251	10.4306
2.54499	10.7253
2.53752	10.8752
2.53009	10.9336
2.5227	10.9209
2.51536	10.7046
2.50806	10.289
2.5008	9.6467
2.49358	8.7419
2.4864	7.4992
2.47927	6.1221
2.47218	5.7185
2.46512	6.5744
2.45811	7.8523
2.45114	8.7497
2.4442	9.2507
2.43731	9.5569
2.43045	9.8208
2.42363	10.1721
2.41685	10.5925
2.41011	11.0659
2.40341	11.5009
2.39674	11.9101
2.39011	12.2412
2.38352	12.426
2.37696	12.5459
2.37044	12.5625
2.36395	12.5639
2.35751	12.592
2.35109	12.5747
2.34471	12.5232
2.33836	12.5605
2.33205	12.6162
2.32578	12.5793
2.31953	12.3413
2.31332	11.832
2.30714	10.7993
2.301	9.7226
2.29489	10.3733
2.28881	11.6325
2.28276	12.4155
2.27675	12.8642
2.27076	13.1142
2.26481	13.2397
2.25889	13.3049
2.253	13.3354
2.24714	13.3874
2.24131	13.4792
2.23551	13.5254
2.22974	13.5185
2.224	13.5468
2.21829	13.6079
2.21261	13.5381
2.20696	13.5131
2.20134	13.4975
2.19574	13.5551
2.19018	13.5554
2.18464	13.5874
2.17913	13.5849
2.17365	13.6416
2.16819	13.6396
2.16277	13.7021
2.15737	13.7163
2.15199	13.5813
2.14665	13.5737
2.14133	13.5957
2.13603	13.6037
2.13077	13.5818
2.12552	13.561
2.12031	13.6023
2.11512	13.5913
2.10995	13.5639
2.10481	13.5102
2.0997	13.5766
2.09461	13.5698
2.08954	13.5683
2.0845	13.5156
2.07948	13.4848
