Name: Basalt
Type: Rocks
Class: Igneous
Subclass: Mafic
Particle Size: Solid
Sample No.: Basalt.H10
Owner: JHU
Origin: from Kilauea, via Rosalind Helz, USGS, Reston, VA (Cat. No. KI
Description: A light gray porphyritic rock with green olivine phenocrysts 1
Measurement: Directional (10 degree) hemispherical reflectance
X Units: Wavelength (micrometers)
Y Units: Reflectance (percent)
wavelength	value
14.0112	1.2769
13.7147	3.4786
13.4304	3.045
13.1577	2.6855
12.8959	3.5257
12.6443	4.1004
12.4023	4.6378
12.1694	5.5929
11.945	6.4382
11.7289	7.4337
11.5203	9.0281
11.3191	10.6617
11.1248	11.6831
10.937	12.3696
10.7555	12.7394
10.5799	12.4394
10.4099	11.2021
10.2454	10.6624
10.0859	9.5838
9.9313	9.4833
9.7814	9.7476
9.636	9.4235
9.4948	9.1212
9.3577	9.6691
9.2245	9.5051
9.095	9.281
8.9691	8.7262
8.8467	7.11
8.7275	5.4785
8.6116	4.747
8.4986	4.38
8.3886	3.7774
8.2814	2.6625
8.1769	1.5213
8.075	1.1587
7.9756	1.0819
7.8786	1.1852
7.784	1.2657
7.6916	1.3969
7.6014	1.5101
7.5133	1.6399
7.4272	1.7484
7.343	1.9275
7.2607	2.0515
7.1803	2.153
7.1016	2.2545
7.0246	2.399
6.9493	2.5106
6.8755	2.6109
6.8034	2.7132
6.7327	2.8135
6.6634	2.8626
6.5956	2.9112
6.5292	2.9508
6.464	2.9578
6.4002	2.9665
6.3376	3.0204
6.2762	3.087
6.216	3.113
6.157	3.1936
6.099	3.2477
6.0421	3.266
5.9863	3.3119
5.9315	3.4812
5.8777	3.6145
5.8249	3.7579
5.773	3.9033
5.722	4.0315
5.6719	4.0882
5.6227	4.2014
5.5744	4.3643
5.5268	4.402
5.4801	4.4771
5.4341	4.5421
5.3889	4.608
5.3445	4.6956
5.3008	4.7301
5.2578	4.8265
5.2154	4.9146
5.1738	4.9959
5.1328	5.0943
5.0925	5.2193
5.0528	5.3519
5.0137	5.5312
4.9752	5.7202
4.9373	5.9578
4.9	6.188
4.8632	6.4355
4.827	6.6756
4.7913	6.9307
4.7561	7.1728
4.7215	7.4784
4.6873	7.8255
4.6536	8.1605
4.6205	8.5956
4.5877	9.0135
4.5555	9.4348
4.5237	9.848
4.4923	10.1789
4.4614	10.4402
4.4309	10.72
4.4008	10.96
4.3711	11.1977
4.3418	11.4529
4.3129	11.6763
4.2844	11.8896
4.2563	12.0878
4.2285	12.3119
4.2011	12.5203
4.174	12.6276
4.1473	12.7753
4.1209	12.8639
4.0949	12.963
4.0692	13.0589
4.0438	13.0717
4.0187	13.1526
3.994	13.2129
3.9695	13.2236
3.9453	13.2968
3.9214	13.338
3.8979	13.3776
3.8746	13.3699
3.8515	13.4163
3.8288	13.4724
3.8063	13.4177
3.7841	13.4667
3.7621	13.4657
3.7404	13.4446
3.7189	13.4259
3.6977	13.3943
3.6767	13.3956
3.656	13.3914
3.6355	13.3872
3.6152	13.3594
3.5951	13.3106
3.5753	13.2677
3.5557	13.2295
3.5363	13.0929
3.5171	12.7132
3.4981	12.2025
3.4793	12.4457
3.4607	12.438
3.4423	12.0982
3.4241	11.2474
3.4061	11.5603
3.3883	12.0712
3.3707	12.2168
3.3533	12.6893
3.336	12.8224
3.3189	12.843
3.302	12.783
3.2853	12.7067
3.2687	12.6407
3.2523	12.5418
3.2361	12.4795
3.22	12.3424
3.204	12.2437
3.1883	12.1448
3.1727	12.0257
3.1572	11.8525
3.1419	11.7347
3.1268	11.6028
3.1117	11.4998
3.0969	11.3657
3.0821	11.2725
3.0675	11.141
3.0531	11.1114
3.0388	10.9837
3.0246	10.954
3.0105	10.8722
2.9966	10.8925
2.9828	10.826
2.9692	10.796
2.9556	10.7922
2.9422	10.7376
2.9289	10.7821
2.9157	10.8229
2.9027	10.8229
2.8897	10.815
2.8769	10.9312
2.8642	10.9626
2.8516	11.077
2.8391	11.0849
2.8267	11.1605
2.8144	11.1874
2.8022	11.2568
2.7902	11.3386
2.7782	11.4942
2.7664	11.695
2.7546	11.8343
2.7429	11.9841
2.7314	12.1265
2.7199	11.6503
2.7085	12.6511
2.6973	12.775
2.6861	12.7636
2.675	12.7643
2.664	12.7092
2.6531	12.6026
2.6423	12.5716
2.6315	12.4947
2.6209	12.3844
2.6103	12.3613
2.5999	12.2433
2.5895	12.1732
2.5792	12.0278
2.569	11.9751
2.5588	11.9791
2.5487	11.8256
2.5388	11.714
2.5289	11.5914
2.519	11.6076
2.5093	11.5259
2.4996	11.3878
2.49	11.3883
2.4805	11.3189
2.471	11.2402
2.4616	11.1541
2.4523	11.1623
2.4431	11.0004
2.4339	11.1145
2.4248	10.9956
2.4157	10.969
2.4068	10.9849
2.3979	10.8417
2.389	10.8389
2.3802	10.8028
2.3715	10.8274
2.3629	10.8229
2.3543	10.7651
2.3458	10.7937
2.3373	10.6397
2.3289	10.7208
2.3206	10.6994
2.3123	10.6195
2.3041	10.628
2.2959	10.5948
2.2878	10.5672
2.2798	10.6038
2.2718	10.6706
2.2638	10.6125
2.2559	10.6888
2.2481	10.6837
2.2403	10.7189
2.2326	10.6886
2.225	10.7707
2.2173	10.713
2.2098	10.7023
2.2023	10.6654
2.1948	10.6906
2.1874	10.7208
2.18	10.7224
2.1727	10.7529
2.1655	10.7254
2.1583	10.8278
2.1511	10.7428
2.144	10.7215
2.1369	10.7606
2.1299	10.7888
2.1229	10.8654
2.116	10.83
2.1091	10.7594
2.1023	10.8548
2.0955	10.9045
2.0887	10.8665
2.082	10.7796
2.06	10.8273
2.028	11.1607
1.996	11.4909
1.964	11.5906
1.932	11.7628
1.9	11.9521
1.868	12.0554
1.836	12.0707
1.804	12.3617
1.772	12.3812
1.74	12.5856
1.708	12.7828
1.676	12.7148
1.644	12.7285
1.612	12.9586
1.58	12.9204
1.548	12.5903
1.516	12.574
1.484	12.1977
1.452	12.0296
1.42	11.5074
1.388	11.2399
1.356	10.8735
1.324	10.5856
1.292	10.1734
1.26	9.9073
1.228	9.6663
1.196	9.371
1.164	9.2015
1.132	8.79
1.1	7.9859
1.068	7.5375
1.036	7.0255
1.004	7.4669
0.972	8.0717
0.94	9.123
0.908	10.4036
0.876	11.3464
0.844	12.1021
0.812	12.8833
0.795	12.7647
0.787	12.9105
0.779	13.1063
0.771	13.1939
0.763	13.2703
0.755	13.4257
0.747	13.2913
0.739	13.3022
0.731	13.6212
0.723	13.7265
0.715	13.6942
0.707	13.8033
0.699	13.6325
0.691	14.0289
0.683	14.1547
0.675	13.9752
0.667	14.1632
0.659	13.8838
0.651	14.0279
0.643	13.7719
0.635	13.6756
0.627	13.7509
0.619	13.8374
0.611	13.9962
0.603	13.6533
0.595	13.6985
0.587	13.6508
0.579	13.5957
0.571	13.198
0.563	12.9946
0.555	13.1026
0.547	12.9538
0.539	12.5479
0.531	12.4641
0.523	12.1696
0.515	11.8955
0.507	11.6304
0.499	11.1429
0.491	10.79
0.483	10.6464
0.475	9.9429
0.467	9.7213
0.459	9.2258
0.451	9.4059
0.443	8.8893
0.435	8.7579
0.427	8.6426
0.419	8.0998
0.411	7.7319
0.403	7.2319
