Name: Chabazite CaAl2Si4O12.6H2O
Type: Mineral
Class: Silicates
Subclass: Tectosilicates (Framework silicates) (Zeolite Group)
Particle Size: Fine  (0-74 Micrometers)
Sample No.: chabazite.1
Owner: JHU
Wavelength Range: IR
Origin: W. J. Ehmann #40; from Kyogle, N.S.W., Australia.
Description: The sample was a white crystalline mass.
Measurement: Bidirectional reflectance
X Units: Wavelength (micrometers)
Y Units: Reflectance (percent)
wavelength	value
25.0442	1.1511
24.3388	1.032
23.6719	0.8047
23.0407	0.8232
22.4422	0.8228
21.8741	0.8801
21.334	0.8149
20.8199	0.8123
20.33	0.7329
19.8627	0.7092
19.4163	0.7402
18.9896	0.7175
18.5812	0.6135
18.19	0.5984
17.815	0.6799
17.4551	0.6975
17.1094	0.6736
16.7772	0.7229
16.4576	0.6726
16.15	0.6999
15.8537	0.676
15.568	0.6218
15.2925	0.5564
15.0265	0.4861
14.7697	0.4946
14.5214	0.5159
14.2814	0.5515
14.0492	0.5798
13.8244	0.5676
13.6067	0.5847
13.3957	0.6267
13.1912	0.6777
12.9929	0.6938
12.8004	0.7908
12.6135	0.9612
12.432	1.1882
12.2557	1.4268
12.0843	1.6113
11.9176	1.7385
11.7555	1.8413
11.5977	1.8789
11.444	1.9343
11.2944	1.9197
11.1487	1.8704
11.0067	1.7632
10.8682	1.5842
10.7332	1.3677
10.6015	1.1218
10.473	0.9663
10.3476	0.9143
10.2251	0.9065
10.1056	0.9138
9.98873	0.9431
9.87458	0.9714
9.763	1.0234
9.65392	1.0811
9.54724	1.1001
9.44291	1.0518
9.34082	0.9341
9.24091	0.8228
9.14312	0.7705
9.04739	0.7083
8.95363	0.6904
8.8618	0.6853
8.77183	0.6816
8.68368	0.6919
8.59727	0.7119
8.51257	0.7424
8.42951	0.7832
8.34807	0.708
8.26819	0.4707
8.18981	0.2214
8.11292	0.124
8.03745	0.1479
7.96337	0.2607
7.89064	0.4302
7.81924	0.6074
7.74911	0.7996
7.68023	0.9622
7.61256	1.1287
7.54608	1.2747
7.48074	1.4199
7.41653	1.5427
7.35341	1.6543
7.29136	1.7483
7.23034	1.8394
7.17033	1.9206
7.11132	1.9888
7.05327	2.043
6.99616	2.0874
6.93996	2.1321
6.88467	2.1567
6.83024	2.1706
6.77667	2.1789
6.72393	2.2068
6.67201	2.2571
6.62089	2.2773
6.57054	2.2729
6.52095	2.2471
6.4721	2.1904
6.42398	2.1052
6.37657	1.9932
6.32986	1.8303
6.28382	1.6135
6.23845	1.342
6.19373	1.0132
6.14965	0.7217
6.10619	0.5552
6.06334	0.4912
6.02109	0.5054
5.97942	0.603
5.93832	0.821
5.89778	1.1943
5.8578	1.7104
5.81835	2.1951
5.77943	2.6504
5.74103	3.0124
5.70314	3.2944
5.66574	3.522
5.62883	3.7136
5.5924	3.885
5.55644	4.0554
5.52093	4.2212
5.48588	4.3762
5.45127	4.5249
5.41709	4.6413
5.38334	4.7322
5.35	4.7964
5.31708	4.855
5.28456	4.9077
5.25243	4.9556
5.2207	5.0132
5.18934	5.0605
5.15836	5.1064
5.12775	5.1609
5.09749	5.2053
5.0676	5.2175
5.03805	5.2112
5.00884	5.1887
4.97998	5.134
4.95144	5.0825
4.92322	5.0166
4.89533	4.9582
4.86775	4.897
4.84048	4.8525
4.81351	4.7991
4.78684	4.7541
4.76047	4.7024
4.73439	4.6699
4.70859	4.6318
4.68306	4.6062
4.65782	4.5962
4.63284	4.5935
4.60814	4.5994
4.58369	4.6196
4.5595	4.6514
4.53557	4.6797
4.51188	4.7414
4.48845	4.8049
4.46525	4.8738
4.44229	4.9626
4.41957	5.0671
4.39708	5.1667
4.37481	5.2759
4.35277	5.4021
4.33096	5.5447
4.30935	5.687
4.28797	5.8293
4.26679	5.9734
4.24583	6.1389
4.22506	6.2939
4.2045	6.4546
4.18414	6.6047
4.16398	6.7571
4.14401	6.9072
4.12423	7.0473
4.10464	7.1914
4.08523	7.3266
4.066	7.4429
4.04696	7.5727
4.02809	7.6809
4.0094	7.7624
3.99088	7.8325
3.97253	7.8847
3.95435	7.9394
3.93634	7.9685
3.91848	7.9846
3.90079	7.9946
3.88326	7.9663
3.86589	7.9424
3.84867	7.9011
3.8316	7.8393
3.81468	7.7676
3.79791	7.6767
3.78129	7.5862
3.76482	7.4763
3.74848	7.3484
3.73229	7.2265
3.71624	7.0766
3.70032	6.9228
3.68454	6.77
3.6689	6.5928
3.65338	6.4231
3.638	6.2451
3.62275	6.0508
3.60762	5.865
3.59262	5.6606
3.57775	5.4536
3.56299	5.2453
3.54836	5.039
3.53385	4.8245
3.51945	4.6081
3.50517	4.3874
3.49101	4.1824
3.47696	3.969
3.46303	3.7634
3.4492	3.5657
3.43549	3.3413
3.42188	3.1548
3.40838	2.9687
3.39499	2.7915
3.38171	2.6262
3.36852	2.4592
3.35544	2.2971
3.34246	2.1558
3.32958	2.0156
3.3168	1.8926
3.30411	1.7649
3.29153	1.6553
3.27903	1.5513
3.26664	1.4397
3.25433	1.3557
3.24212	1.2732
3.23	1.1807
3.21797	1.1162
3.20603	1.053
3.19418	0.9856
3.18241	0.9404
3.17074	0.8806
3.15914	0.8396
3.14763	0.7964
3.13621	0.7488
3.12487	0.7126
3.11361	0.668
3.10243	0.6416
3.09133	0.613
3.0803	0.5928
3.06936	0.583
3.0585	0.5776
3.04771	0.5623
3.037	0.543
3.02636	0.5503
3.0158	0.5344
3.00531	0.5156
2.99489	0.5081
2.98454	0.4961
2.97427	0.479
2.96407	0.4744
2.95393	0.4553
2.94387	0.4438
2.93387	0.439
2.92394	0.4419
2.91408	0.4392
2.90429	0.4214
2.89456	0.4197
2.88489	0.4185
2.87529	0.429
2.86576	0.427
2.85628	0.4304
2.84687	0.4285
2.83752	0.4114
2.82823	0.4346
2.81901	0.4182
2.80984	0.4272
2.80073	0.4397
2.79168	0.459
2.78269	0.467
2.77376	0.5032
2.76488	0.5479
2.75606	0.6389
2.7473	0.7815
2.73859	1.0632
2.72994	1.5051
2.72134	2.0691
2.7128	2.6936
2.70431	3.3037
2.69587	3.8577
2.68748	4.3352
2.67915	4.7139
2.67087	5.0564
2.66264	5.3459
2.65446	5.5776
2.64633	5.78
2.63825	5.9585
2.63021	6.0801
2.62223	6.2043
2.6143	6.3083
2.60641	6.3476
2.59857	6.4055
2.59078	6.4538
2.58304	6.4787
2.57534	6.487
2.56768	6.5337
2.56008	6.5271
2.55251	6.5727
2.54499	6.5903
2.53752	6.6267
2.53009	6.6587
2.5227	6.6843
2.51536	6.7763
2.50806	6.8821
2.5008	6.9848
2.49358	7.1001
2.4864	7.1936
2.47927	7.3157
2.47218	7.445
2.46512	7.5349
2.45811	7.6994
2.45114	7.824
2.4442	7.9297
2.43731	8.0718
2.43045	8.2175
2.42363	8.3755
2.41685	8.5888
2.41011	8.7878
2.40341	8.946
2.39674	9.1616
2.39011	9.3784
2.38352	9.6086
2.37696	9.7885
2.37044	10.019
2.36395	10.1916
2.35751	10.3491
2.35109	10.5454
2.34471	10.6843
2.33836	10.7927
2.33205	10.927
2.32578	11.0515
2.31953	11.1313
2.31332	11.2329
2.30714	11.3259
2.301	11.4094
2.29489	11.4782
2.28881	11.5583
2.28276	11.5598
2.27675	11.6345
2.27076	11.676
2.26481	11.7275
2.25889	11.7949
2.253	11.8159
2.24714	11.7837
2.24131	11.7976
2.23551	11.821
2.22974	11.8073
2.224	11.8134
2.21829	11.8142
2.21261	11.7973
2.20696	11.8337
2.20134	11.8112
2.19574	11.8164
2.19018	11.8066
2.18464	11.8042
2.17913	11.7644
2.17365	11.7866
2.16819	11.7783
2.16277	11.7485
2.15737	11.7448
2.15199	11.6582
2.14665	11.6196
2.14133	11.6233
2.13603	11.625
2.13077	11.583
2.12552	11.5573
2.12031	11.5376
2.11512	11.4751
2.10995	11.4096
2.10481	11.3938
2.0997	11.395
2.09461	11.3178
2.08954	11.3025
2.0845	11.2627
2.07948	11.1948
