Name: Vesuvianite Ca10Mg2Al4(SiO4)5(Si2O7)2(OH)4
Type: Mineral
Class: Silicates
Subclass: Sorosilicates
Particle Size: Coarse (75 - 250 Micrometers)
Sample No.: vesuvian.1
Owner: JHU
Wavelength Range: IR
Origin: Quebec, Canada via Norma Vergo
Description: The sample was a massive piece of striated, green,
Measurement: Bidirectional reflectance
X Units: Wavelength (micrometers)
Y Units: Reflectance (percent)
wavelength	value
25.0442	2.0337
24.3388	2.6765
23.6719	2.5317
23.0407	3.1218
22.4422	3.2217
21.8741	2.3498
21.334	2.3762
20.8199	2.9477
20.33	3.5486
19.8627	3.3874
19.4163	2.6128
18.9896	2.0674
18.5812	1.5969
18.19	1.1882
17.815	1.1162
17.4551	1.4143
17.1094	1.3191
16.7772	1.1411
16.4576	1.2659
16.15	1.0842
15.8537	1.0024
15.568	0.8887
15.2925	0.8311
15.0265	0.5923
14.7697	0.4751
14.5214	0.562
14.2814	0.6436
14.0492	0.6978
13.8244	0.7546
13.6067	0.8152
13.3957	0.8728
13.1912	0.9756
12.9929	1.0635
12.8004	1.2187
12.6135	1.3391
12.432	1.3247
12.2557	1.3188
12.0843	1.4246
11.9176	1.5742
11.7555	1.717
11.5977	1.7361
11.444	1.7751
11.2944	2.0281
11.1487	2.1309
11.0067	2.1072
10.8682	2.3857
10.7332	2.0742
10.6015	1.9333
10.473	2.0063
10.3476	2.2331
10.2251	2.4131
10.1056	2.1509
9.98873	1.7146
9.87458	3.0366
9.763	4.6418
9.65392	5.2358
9.54724	4.7488
9.44291	3.6089
9.34082	2.0161
9.24091	0.8745
9.14312	0.3491
9.04739	0.1909
8.95363	0.1658
8.8618	0.2
8.77183	0.2314
8.68368	0.2744
8.59727	0.3184
8.51257	0.363
8.42951	0.395
8.34807	0.4377
8.26819	0.4709
8.18981	0.5061
8.11292	0.5454
8.03745	0.552
7.96337	0.592
7.89064	0.6045
7.81924	0.6675
7.74911	0.7026
7.68023	0.7537
7.61256	0.7744
7.54608	0.8245
7.48074	0.8499
7.41653	0.8755
7.35341	0.9014
7.29136	0.9341
7.23034	0.9653
7.17033	0.9998
7.11132	1.0361
7.05327	1.0762
6.99616	1.1294
6.93996	1.1565
6.88467	1.2205
6.83024	1.2815
6.77667	1.2373
6.72393	1.1899
6.67201	1.3437
6.62089	1.4246
6.57054	1.4648
6.52095	1.4856
6.4721	1.5107
6.42398	1.5117
6.37657	1.4585
6.32986	1.3381
6.28382	1.3332
6.23845	1.3972
6.19373	1.3437
6.14965	1.2732
6.10619	1.1858
6.06334	1.1379
6.02109	1.1311
5.97942	1.1531
5.93832	1.1682
5.89778	1.1707
5.8578	1.1609
5.81835	1.1416
5.77943	1.1082
5.74103	1.0554
5.70314	1.0068
5.66574	0.9468
5.62883	0.9041
5.5924	0.8762
5.55644	0.8682
5.52093	0.8794
5.48588	0.915
5.45127	0.9705
5.41709	1
5.38334	1.0239
5.35	1.0361
5.31708	1.0535
5.28456	1.0759
5.25243	1.1235
5.2207	1.1731
5.18934	1.2327
5.15836	1.2932
5.12775	1.3455
5.09749	1.3979
5.0676	1.4778
5.03805	1.5637
5.00884	1.666
4.97998	1.762
4.95144	1.8535
4.92322	1.9365
4.89533	2.0188
4.86775	2.0969
4.84048	2.1614
4.81351	2.2214
4.78684	2.262
4.76047	2.291
4.73439	2.2991
4.70859	2.2903
4.68306	2.2832
4.65782	2.241
4.63284	2.23
4.60814	2.3208
4.58369	2.4536
4.5595	2.5378
4.53557	2.5925
4.51188	2.6323
4.48845	2.6528
4.46525	2.6804
4.44229	2.707
4.41957	2.7322
4.39708	2.7497
4.37481	2.7637
4.35277	2.7859
4.33096	2.7961
4.30935	2.8125
4.28797	2.812
4.26679	2.8201
4.24583	2.8315
4.22506	2.8293
4.2045	2.8215
4.18414	2.8096
4.16398	2.7876
4.14401	2.7578
4.12423	2.7275
4.10464	2.6975
4.08523	2.6809
4.066	2.6826
4.04696	2.6934
4.02809	2.6955
4.0094	2.6846
3.99088	2.6655
3.97253	2.6301
3.95435	2.6052
3.93634	2.5842
3.91848	2.5505
3.90079	2.511
3.88326	2.4756
3.86589	2.4238
3.84867	2.3794
3.8316	2.3498
3.81468	2.3125
3.79791	2.2827
3.78129	2.23
3.76482	2.1838
3.74848	2.1379
3.73229	2.0713
3.71624	2.0164
3.70032	1.9548
3.68454	1.8928
3.6689	1.8332
3.65338	1.7632
3.638	1.7097
3.62275	1.644
3.60762	1.5879
3.59262	1.5176
3.57775	1.4609
3.56299	1.4006
3.54836	1.3291
3.53385	1.2795
3.51945	1.2249
3.50517	1.1799
3.49101	1.147
3.47696	1.1062
3.46303	1.0737
3.4492	1.0522
3.43549	1.0278
3.42188	0.9927
3.40838	0.9805
3.39499	0.9509
3.38171	0.9353
3.36852	0.915
3.35544	0.8936
3.34246	0.8777
3.32958	0.8594
3.3168	0.8425
3.30411	0.8284
3.29153	0.8169
3.27903	0.804
3.26664	0.8032
3.25433	0.7969
3.24212	0.7893
3.23	0.7747
3.21797	0.7673
3.20603	0.7488
3.19418	0.7485
3.18241	0.7427
3.17074	0.7371
3.15914	0.7361
3.14763	0.7319
3.13621	0.7361
3.12487	0.7239
3.11361	0.7195
3.10243	0.7239
3.09133	0.7253
3.0803	0.7185
3.06936	0.7251
3.0585	0.7319
3.04771	0.7241
3.037	0.7322
3.02636	0.7353
3.0158	0.7353
3.00531	0.7363
2.99489	0.7385
2.98454	0.7363
2.97427	0.73
2.96407	0.7246
2.95393	0.7275
2.94387	0.7166
2.93387	0.729
2.92394	0.7219
2.91408	0.7256
2.90429	0.7288
2.89456	0.7266
2.88489	0.7163
2.87529	0.7178
2.86576	0.7114
2.85628	0.7153
2.84687	0.7141
2.83752	0.7139
2.82823	0.7092
2.81901	0.7129
2.80984	0.7173
2.80073	0.7319
2.79168	0.7454
2.78269	0.7717
2.77376	0.752
2.76488	0.7324
2.75606	0.6929
2.7473	0.6858
2.73859	0.6963
2.72994	0.7383
2.72134	0.7073
2.7128	0.8533
2.70431	1.2268
2.69587	1.4756
2.68748	1.6562
2.67915	1.7991
2.67087	1.9224
2.66264	2.0373
2.65446	2.1289
2.64633	2.2153
2.63825	2.3332
2.63021	2.4543
2.62223	2.5886
2.6143	2.6894
2.60641	2.7573
2.59857	2.8162
2.59078	2.8672
2.58304	2.9141
2.57534	2.9731
2.56768	3.0256
2.56008	3.0859
2.55251	3.1821
2.54499	3.2854
2.53752	3.3484
2.53009	3.3887
2.5227	3.408
2.51536	3.4233
2.50806	3.4155
2.5008	3.4084
2.49358	3.4023
2.4864	3.3804
2.47927	3.3655
2.47218	3.3425
2.46512	3.3198
2.45811	3.261
2.45114	3.2131
2.4442	3.1384
2.43731	3.0781
2.43045	3.0605
2.42363	3.0442
2.41685	3.0356
2.41011	3.0312
2.40341	3.0366
2.39674	3.1262
2.39011	3.2207
2.38352	3.241
2.37696	3.2168
2.37044	3.2134
2.36395	3.189
2.35751	3.145
2.35109	3.1653
2.34471	3.2266
2.33836	3.3303
2.33205	3.3879
2.32578	3.4253
2.31953	3.448
2.31332	3.3816
2.30714	3.3767
2.301	3.4929
2.29489	3.7285
2.28881	3.9253
2.28276	4.0322
2.27675	4.133
2.27076	4.1916
2.26481	4.2983
2.25889	4.4043
2.253	4.4993
2.24714	4.6196
2.24131	4.7051
2.23551	4.8042
2.22974	4.8823
2.224	5.012
2.21829	5.1111
2.21261	5.1887
2.20696	5.2388
2.20134	5.2981
2.19574	5.3386
2.19018	5.3469
2.18464	5.3662
2.17913	5.425
2.17365	5.3994
2.16819	5.4431
2.16277	5.5063
2.15737	5.4516
2.15199	5.4646
2.14665	5.4763
2.14133	5.5102
2.13603	5.6213
2.13077	5.7453
2.12552	5.8838
2.12031	5.9607
2.11512	6.0574
2.10995	6.177
2.10481	6.2475
2.0997	6.3376
2.09461	6.3992
2.08954	6.4365
2.0845	6.5036
2.07948	6.5295
