Name: Prehnite Ca2Al2Si3O10(OH)2
Type: Mineral
Class: Silicates
Subclass: Phyllosilicates (Sheet Silicates); (Chlorite Group)
Particle Size: Solid
Sample No.: prehnite.1
Owner: JHU
Wavelength Range: IR
Origin: Paterson, New Jersey, USA via Norma Vergo
Description: The sample consisted of a cluster of light green,
Measurement: Bidirectional reflectance
X Units: Wavelength (micrometers)
Y Units: Reflectance (percent)
wavelength	value
25.0442	8.7805
24.3388	7.9848
23.6719	7.6499
23.0407	7.4824
22.4422	6.8642
21.8741	6.9599
21.334	8.2104
20.8199	10.1528
20.33	10.5046
19.8627	8.0928
19.4163	7.9175
18.9896	7.6909
18.5812	8.0952
18.19	8.0259
17.815	5.0693
17.4551	1.7478
17.1094	0.8445
16.7772	1.1758
16.4576	1.6045
16.15	1.9831
15.8537	2.3066
15.568	2.4028
15.2925	2.7331
15.0265	2.9101
14.7697	3.1431
14.5214	3.4568
14.2814	3.8132
14.0492	4.2432
13.8244	5.0168
13.6067	6.6023
13.3957	7.509
13.1912	8.1282
12.9929	7.6577
12.8004	3.3906
12.6135	3.2002
12.432	3.5764
12.2557	4.3264
12.0843	2.7065
11.9176	2.3003
11.7555	2.667
11.5977	3.1711
11.444	3.4231
11.2944	3.6716
11.1487	4.3752
11.0067	5.5815
10.8682	7.509
10.7332	8.5874
10.6015	7.8989
10.473	6.6853
10.3476	5.6128
10.2251	7.6045
10.1056	9.6892
9.98873	10.2507
9.87458	10.9677
9.763	11.6421
9.65392	9.6133
9.54724	6.3122
9.44291	5.8972
9.34082	9.9829
9.24091	13.2548
9.14312	12.9355
9.04739	12.6513
8.95363	11.8137
8.8618	9.834
8.77183	8.0984
8.68368	5.8093
8.59727	3.2905
8.51257	1.3943
8.42951	0.5168
8.34807	0.2815
8.26819	0.3298
8.18981	0.4363
8.11292	0.5427
8.03745	0.6489
7.96337	0.7554
7.89064	0.8618
7.81924	0.9539
7.74911	1.0381
7.68023	1.1221
7.61256	1.2061
7.54608	1.2712
7.48074	1.3345
7.41653	1.3865
7.35341	1.4314
7.29136	1.4746
7.23034	1.5164
7.17033	1.5522
7.11132	1.5808
7.05327	1.6094
6.99616	1.6331
6.93996	1.6663
6.88467	1.6885
6.83024	1.7092
6.77667	1.7405
6.72393	1.769
6.67201	1.792
6.62089	1.8098
6.57054	1.8113
6.52095	1.8308
6.4721	1.8303
6.42398	1.8469
6.37657	1.8828
6.32986	1.9402
6.28382	1.9866
6.23845	2.0142
6.19373	2.0342
6.14965	2.0591
6.10619	2.0703
6.06334	2.0876
6.02109	2.0947
5.97942	2.0945
5.93832	2.0862
5.89778	2.0898
5.8578	2.0862
5.81835	2.0891
5.77943	2.1201
5.74103	2.1367
5.70314	2.1602
5.66574	2.1702
5.62883	2.1963
5.5924	2.2244
5.55644	2.2417
5.52093	2.2471
5.48588	2.2214
5.45127	2.2053
5.41709	2.2324
5.38334	2.2624
5.35	2.3005
5.31708	2.3596
5.28456	2.4123
5.25243	2.4636
5.2207	2.4985
5.18934	2.5056
5.15836	2.5073
5.12775	2.5061
5.09749	2.5295
5.0676	2.5593
5.03805	2.5859
5.00884	2.605
4.97998	2.6287
4.95144	2.6538
4.92322	2.6897
4.89533	2.7153
4.86775	2.7439
4.84048	2.7634
4.81351	2.781
4.78684	2.7905
4.76047	2.803
4.73439	2.8274
4.70859	2.8472
4.68306	2.8591
4.65782	2.8718
4.63284	2.8918
4.60814	2.9043
4.58369	2.9285
4.5595	2.9409
4.53557	2.9504
4.51188	2.9607
4.48845	2.9788
4.46525	2.988
4.44229	3.0071
4.41957	3.0234
4.39708	3.0332
4.37481	3.043
4.35277	3.0539
4.33096	3.062
4.30935	3.0693
4.28797	3.0786
4.26679	3.0879
4.24583	3.104
4.22506	3.1123
4.2045	3.114
4.18414	3.1186
4.16398	3.1282
4.14401	3.1323
4.12423	3.1318
4.10464	3.1479
4.08523	3.1518
4.066	3.1606
4.04696	3.1645
4.02809	3.1667
4.0094	3.1675
3.99088	3.1767
3.97253	3.177
3.95435	3.1865
3.93634	3.1941
3.91848	3.1999
3.90079	3.2014
3.88326	3.1929
3.86589	3.1921
3.84867	3.1987
3.8316	3.2063
3.81468	3.2058
3.79791	3.2168
3.78129	3.2244
3.76482	3.2305
3.74848	3.2205
3.73229	3.2207
3.71624	3.2258
3.70032	3.2268
3.68454	3.218
3.6689	3.2209
3.65338	3.2163
3.638	3.2207
3.62275	3.2312
3.60762	3.2371
3.59262	3.2392
3.57775	3.239
3.56299	3.2544
3.54836	3.2595
3.53385	3.2629
3.51945	3.2671
3.50517	3.2768
3.49101	3.2859
3.47696	3.2905
3.46303	3.2925
3.4492	3.2932
3.43549	3.2859
3.42188	3.2778
3.40838	3.2832
3.39499	3.2847
3.38171	3.2866
3.36852	3.2817
3.35544	3.282
3.34246	3.269
3.32958	3.2519
3.3168	3.2429
3.30411	3.238
3.29153	3.2327
3.27903	3.2314
3.26664	3.2288
3.25433	3.2314
3.24212	3.2143
3.23	3.207
3.21797	3.1965
3.20603	3.1829
3.19418	3.1577
3.18241	3.1357
3.17074	3.1328
3.15914	3.1323
3.14763	3.1306
3.13621	3.1245
3.12487	3.1155
3.11361	3.0964
3.10243	3.0991
3.09133	3.0918
3.0803	3.0908
3.06936	3.0842
3.0585	3.0769
3.04771	3.0432
3.037	3.0215
3.02636	2.9895
3.0158	2.9521
3.00531	2.8872
2.99489	2.8369
2.98454	2.8157
2.97427	2.8122
2.96407	2.8049
2.95393	2.7971
2.94387	2.8074
2.93387	2.8191
2.92394	2.7302
2.91408	2.5876
2.90429	2.4341
2.89456	2.3203
2.88489	2.2698
2.87529	2.3323
2.86576	2.4185
2.85628	1.967
2.84687	1.9792
2.83752	2.3215
2.82823	2.5437
2.81901	2.6311
2.80984	2.667
2.80073	2.6794
2.79168	2.6789
2.78269	2.6948
2.77376	2.7273
2.76488	2.779
2.75606	2.8428
2.7473	2.9131
2.73859	2.937
2.72994	2.9851
2.72134	2.9997
2.7128	3.0466
2.70431	3.062
2.69587	3.102
2.68748	3.0947
2.67915	3.0886
2.67087	3.092
2.66264	3.0903
2.65446	3.1147
2.64633	3.0959
2.63825	3.0796
2.63021	3.0647
2.62223	3.0232
2.6143	3.0151
2.60641	2.9922
2.59857	2.9936
2.59078	2.9724
2.58304	2.9712
2.57534	2.9338
2.56768	2.937
2.56008	2.9272
2.55251	2.956
2.54499	2.9785
2.53752	2.9609
2.53009	2.9399
2.5227	2.939
2.51536	2.9502
2.50806	2.9731
2.5008	2.9722
2.49358	2.977
2.4864	2.9624
2.47927	2.956
2.47218	2.9507
2.46512	2.959
2.45811	2.9809
2.45114	2.9775
2.4442	2.9849
2.43731	2.9512
2.43045	2.9243
2.42363	2.8845
2.41685	2.834
2.41011	2.7983
2.40341	2.792
2.39674	2.7583
2.39011	2.7371
2.38352	2.7209
2.37696	2.7353
2.37044	2.731
2.36395	2.6475
2.35751	2.636
2.35109	2.6577
2.34471	2.7007
2.33836	2.6875
2.33205	2.6946
2.32578	2.7473
2.31953	2.8557
2.31332	2.8955
2.30714	2.925
2.301	2.9048
2.29489	2.9084
2.28881	2.8935
2.28276	2.8965
2.27675	2.8652
2.27076	2.8735
2.26481	2.9036
2.25889	2.9153
2.253	2.9228
2.24714	2.8559
2.24131	2.8486
2.23551	2.8672
2.22974	2.8887
2.224	2.9228
2.21829	2.9641
2.21261	2.998
2.20696	3.0071
2.20134	3.0498
2.19574	3.0713
2.19018	3.0762
2.18464	3.1155
2.17913	3.0879
2.17365	3.104
2.16819	3.1409
2.16277	3.1299
2.15737	3.1301
2.15199	3.0937
2.14665	3.1389
2.14133	3.1514
2.13603	3.1536
2.13077	3.1545
2.12552	3.1399
2.12031	3.133
2.11512	3.1406
2.10995	3.175
2.10481	3.1995
2.0997	3.1858
2.09461	3.2275
2.08954	3.2207
2.0845	3.2463
2.07948	3.2617
