Name: Albite NaAlSi3O8
Type: Mineral
Class: Silicates
Subclass: Tectosilicates (Framework silicates) (Feldspar Group)
Particle Size: Coarse (74-250 Micrometers)
Sample No.: albite.1
Owner: JHU
Wavelength Range: IR
Origin: Sample from Rutherford, Virginia, USA via the Smithsonian
Description: The sample was a large (2 cm x 2 cm x 2 cm) fragment of
Measurement: Bidirectional reflectance
X Units: Wavelength (micrometers)
Y Units: Reflectance (percent)
wavelength	value
25.044	6.1909
24.339	6.3218
23.672	8.2197
23.041	6.1157
22.442	6.043
21.874	4.0015
21.334	4.2153
20.82	4.9761
20.33	4.1308
19.863	2.4018
19.416	2.9097
18.99	3.7788
18.581	4.4624
18.19	2.739
17.815	2.9121
17.455	3.6038
17.109	4.6091
16.777	5.5159
16.458	5.6255
16.15	4.4116
15.854	3.4358
15.568	2.8718
15.292	4.5735
15.027	3.6052
14.77	2.3679
14.521	2.4282
14.281	2.6401
14.049	2.8823
13.824	3.3125
13.607	2.8672
13.396	3.5261
13.191	3.1792
12.993	3.5405
12.8	2.2427
12.614	2.7068
12.432	1.9663
12.256	2.2366
12.084	2.4119
11.918	2.5247
11.755	2.6189
11.598	2.72
11.444	2.7974
11.294	2.9023
11.149	2.9907
11.007	3.0791
10.868	3.2139
10.733	3.4199
10.602	3.657
10.473	3.9739
10.348	4.5056
10.225	5.4626
10.106	6.7229
9.989	8.0996
9.875	8.6037
9.763	7.3779
9.654	10.4145
9.547	10.1701
9.443	7.0278
9.341	6.438
9.241	5.7449
9.143	6.4416
9.047	5.8218
8.954	5.3786
8.862	5.9624
8.772	7.105
8.684	8.3991
8.597	8.8364
8.513	8.5959
8.43	8.5151
8.348	8.4599
8.268	8.2287
8.19	7.7436
8.113	6.5088
8.037	5.0952
7.963	3.73
7.891	2.49
7.819	1.3931
7.749	0.5803
7.68	0.3281
7.613	0.3809
7.546	0.5088
7.481	0.6121
7.417	0.6831
7.353	0.7559
7.291	0.8337
7.23	0.8933
7.17	0.9734
7.111	1.0898
7.053	1.1523
6.996	1.1843
6.94	1.2251
6.885	1.2949
6.83	1.3347
6.777	1.3345
6.724	1.3496
6.672	1.3784
6.621	1.3723
6.571	1.4236
6.521	1.4663
6.472	1.5312
6.424	1.5967
6.377	1.5771
6.33	1.5195
6.284	1.48
6.238	1.4434
6.194	1.4311
6.15	1.5002
6.106	1.5923
6.063	1.6269
6.021	1.6362
5.979	1.6619
5.938	1.6284
5.898	1.5955
5.858	1.6189
5.818	1.5959
5.779	1.551
5.741	1.5161
5.703	1.5115
5.666	1.5371
5.629	1.5923
5.592	1.5959
5.556	1.5876
5.521	1.7327
5.486	1.8694
5.451	1.9534
5.417	2.125
5.383	2.4131
5.35	2.5867
5.317	2.5544
5.285	2.4885
5.252	2.417
5.221	2.417
5.189	2.4978
5.158	2.6567
5.128	2.8125
5.097	3.0264
5.068	3.3135
5.038	3.4199
5.009	3.4975
4.98	3.6711
4.951	4.2659
4.923	4.1929
4.895	3.8967
4.868	4.1514
4.84	4.5371
4.814	4.5303
4.787	4.1042
4.76	4.198
4.734	4.522
4.709	4.8164
4.683	5.0273
4.658	5.1518
4.633	5.4255
4.608	5.8777
4.584	6.1755
4.56	6.4482
4.536	6.7107
4.512	7.0747
4.488	7.5112
4.465	7.8684
4.442	8.0657
4.42	8.1819
4.397	8.3655
4.375	8.5898
4.353	8.7776
4.331	9.0317
4.309	9.3506
4.288	9.6316
4.267	9.8669
4.246	10.072
4.225	10.2773
4.205	10.49
4.184	10.612
4.164	10.6987
4.144	10.7483
4.124	10.8047
4.105	10.8423
4.085	10.8708
4.066	10.8994
4.047	10.915
4.028	10.925
4.009	10.9145
3.991	10.9052
3.973	10.9104
3.954	10.9475
3.936	10.9992
3.918	11.0412
3.901	11.0915
3.883	11.1159
3.866	11.1296
3.849	11.1592
3.832	11.1804
3.815	11.2065
3.798	11.2697
3.781	11.3215
3.765	11.3654
3.748	11.4126
3.732	11.4475
3.716	11.4548
3.7	11.4785
3.685	11.4831
3.669	11.5007
3.653	11.549
3.638	11.5752
3.623	11.5818
3.608	11.601
3.593	11.6001
3.578	11.6025
3.563	11.5991
3.548	11.573
3.534	11.5554
3.519	11.5351
3.505	11.4931
3.491	11.4824
3.477	11.4499
3.463	11.4162
3.449	11.3598
3.435	11.3088
3.422	11.2126
3.408	11.1469
3.395	11.103
3.382	11.0471
3.369	10.9812
3.355	10.9228
3.342	10.8552
3.33	10.7817
3.317	10.6797
3.304	10.6003
3.292	10.5544
3.279	10.5124
3.267	10.4824
3.254	10.4638
3.242	10.4492
3.23	10.447
3.218	10.4265
3.206	10.4111
3.194	10.3991
3.182	10.374
3.171	10.3445
3.159	10.3257
3.148	10.2954
3.136	10.2773
3.125	10.2663
3.114	10.2383
3.102	10.2185
3.091	10.196
3.08	10.1587
3.069	10.1435
3.058	10.1352
3.048	10.1247
3.037	10.1279
3.026	10.1037
3.016	10.073
3.005	10.0542
2.995	10.0241
2.985	9.9563
2.974	9.9551
2.964	9.9697
2.954	9.9914
2.944	9.9807
2.934	9.9092
2.924	9.9106
2.914	9.924
2.904	9.9248
2.895	9.9382
2.885	9.9387
2.875	9.8652
2.866	9.8718
2.856	9.5947
2.847	9.102
2.838	10.0154
2.828	10.2019
2.819	10.3073
2.81	10.3886
2.801	10.4587
2.792	10.5403
2.783	10.5
2.774	10.5527
2.765	10.6684
2.756	10.8069
2.747	11.0368
2.739	11.1843
2.73	11.3618
2.721	11.5344
2.713	11.6726
2.704	11.7478
2.696	11.8523
2.687	11.8904
2.679	11.9619
2.671	11.9609
2.663	12.0195
2.654	12.007
2.646	12.0027
2.638	12.0232
2.63	11.9621
2.622	11.9875
2.614	11.9638
2.606	11.9585
2.599	11.9831
2.591	11.9785
2.583	11.945
2.575	11.9336
2.568	11.9087
2.56	11.8896
2.553	11.8847
2.545	11.886
2.538	11.8906
2.53	11.8628
2.523	11.8491
2.515	11.8667
2.508	11.8435
2.501	11.8125
2.494	11.8369
2.486	11.8127
2.479	11.8071
2.472	11.7734
2.465	11.7368
2.458	11.7436
2.451	11.7273
2.444	11.7456
2.437	11.7007
2.43	11.6909
2.424	11.6926
2.417	11.7226
2.41	11.6401
2.403	11.6499
2.397	11.6401
2.39	11.6115
2.384	11.6338
2.377	11.5898
2.37	11.6081
2.364	11.5874
2.358	11.5581
2.351	11.5844
2.345	11.5722
2.338	11.5205
2.332	11.4917
2.326	11.4809
2.32	11.5195
2.313	11.5171
2.307	11.5188
2.301	11.4966
2.295	11.4792
2.289	11.4743
2.283	11.4428
2.277	11.4236
2.271	11.4314
2.265	11.4279
2.259	11.4133
2.253	11.4238
2.247	11.3694
2.241	11.3491
2.236	11.4221
2.23	11.4211
2.224	11.3786
2.218	11.3945
2.213	11.4043
2.207	11.3745
2.201	11.3794
2.196	11.3667
2.19	11.3918
2.185	11.3584
2.179	11.3808
2.174	11.4072
2.168	11.4126
2.163	11.4267
2.157	11.4572
2.152	11.3889
2.147	11.4482
2.141	11.4038
2.136	11.4184
2.131	11.498
2.126	11.4504
2.12	11.4795
2.115	11.4853
2.11	11.4614
2.105	11.5129
2.1	11.4697
2.095	11.5229
2.09	11.5537
2.085	11.581
2.079	11.593
