Name: Millen2
Type: Stony Meteorites
Class: Ordinary Chondrite
Subclass: H4
Particle Size: 0-75 micrometers
Sample No.: Millen 5823
Owner: JHU
Origin: Meteorite found in 1975.  Smithsonian sample No USNM 5823.
Description: None.
Measurement: Bidirectional reflectance
X Units: Wavelength (micrometers)
Y Units: Reflectance (percent)
wavelength	value
25.044	0.947
24.339	1.115
23.672	0.8579
23.041	0.915
22.442	0.8923
21.874	0.8225
21.334	0.8379
20.82	0.8525
20.33	0.9526
19.863	0.9936
19.416	1.0439
18.99	0.8711
18.581	0.8574
18.19	0.8687
17.815	0.7781
17.455	0.7978
17.109	0.791
16.777	0.7676
16.458	0.7239
16.15	0.7112
15.854	0.6912
15.568	0.6208
15.292	0.5845
15.027	0.6506
14.77	0.7161
14.521	0.7759
14.281	0.8665
14.049	0.9629
13.824	0.9617
13.607	1.0491
13.396	1.186
13.191	1.3853
12.993	1.509
12.8	1.5593
12.614	1.5806
12.432	1.5881
12.256	1.5271
12.084	1.3169
11.918	1.115
11.755	1.0801
11.598	1.0762
11.444	1.1457
11.294	1.1411
11.149	1.0537
11.007	1.033
10.868	1.0625
10.733	1.1062
10.602	1.1135
10.473	1.0124
10.348	0.9526
10.225	0.9275
10.106	0.8853
9.9887	0.8303
9.8746	0.8098
9.763	0.7624
9.6539	0.8152
9.5472	0.9023
9.4429	0.9397
9.3408	0.9233
9.2409	0.8916
9.1431	0.8882
9.0474	0.9104
8.9536	0.884
8.8618	0.8601
8.7718	0.8359
8.6837	0.8779
8.5973	0.9062
8.5126	0.981
8.4295	1.1072
8.3481	1.293
8.2682	1.5137
8.1898	1.7275
8.1129	1.9255
8.0374	2.1133
7.9634	2.269
7.8906	2.3926
7.8192	2.4993
7.7491	2.5801
7.6802	2.6411
7.6126	2.6853
7.5461	2.7529
7.4807	2.8144
7.4165	2.874
7.3534	2.9363
7.2914	2.9858
7.2303	3.0286
7.1703	3.0535
7.1113	3.0747
7.0533	3.0818
6.9962	3.114
6.94	3.1445
6.8847	3.1814
6.8302	3.2314
6.7767	3.2634
6.7239	3.2917
6.672	3.2778
6.6209	3.26
6.5705	3.2485
6.5209	3.2358
6.4721	3.2075
6.424	3.1804
6.3766	3.1677
6.3299	3.1328
6.2838	3.1106
6.2385	3.0662
6.1937	2.9941
6.1496	2.9304
6.1062	2.8911
6.0633	2.865
6.0211	2.8916
5.9794	2.9893
5.9383	3.1067
5.8978	3.2012
5.8578	3.2812
5.8184	3.3303
5.7794	3.3686
5.741	3.3752
5.7031	3.3498
5.6657	3.312
5.6288	3.3159
5.5924	3.3652
5.5564	3.4311
5.5209	3.4543
5.4859	3.4548
5.4513	3.4626
5.4171	3.4763
5.3833	3.5207
5.35	3.5356
5.3171	3.5452
5.2846	3.5332
5.2524	3.522
5.2207	3.5181
5.1893	3.5037
5.1584	3.5002
5.1277	3.5129
5.0975	3.5334
5.0676	3.5493
5.038	3.5669
5.0088	3.5745
4.98	3.573
4.9514	3.5784
4.9232	3.602
4.8953	3.6208
4.8678	3.6421
4.8405	3.6577
4.8135	3.6733
4.7868	3.6836
4.7605	3.7051
4.7344	3.7136
4.7086	3.7246
4.6831	3.727
4.6578	3.7327
4.6328	3.7444
4.6081	3.7485
4.5837	3.7534
4.5595	3.7624
4.5356	3.7605
4.5119	3.7568
4.4884	3.7519
4.4652	3.7485
4.4423	3.7461
4.4196	3.7414
4.3971	3.7395
4.3748	3.7346
4.3528	3.7256
4.331	3.7161
4.3094	3.7082
4.288	3.7017
4.2668	3.6977
4.2458	3.7002
4.2251	3.6975
4.2045	3.6965
4.1841	3.6916
4.164	3.6843
4.144	3.6763
4.1242	3.6653
4.1046	3.6597
4.0852	3.6572
4.066	3.6477
4.047	3.6392
4.0281	3.6311
4.0094	3.6243
3.9909	3.6096
3.9725	3.5964
3.9544	3.5806
3.9363	3.574
3.9185	3.5561
3.9008	3.5388
3.8833	3.522
3.8659	3.509
3.8487	3.49
3.8316	3.4722
3.8147	3.4492
3.7979	3.4258
3.7813	3.4111
3.7648	3.3865
3.7485	3.3606
3.7323	3.3496
3.7162	3.3174
3.7003	3.3013
3.6845	3.2715
3.6689	3.2468
3.6534	3.22
3.638	3.1965
3.6227	3.178
3.6076	3.1453
3.5926	3.1191
3.5777	3.092
3.563	3.0696
3.5484	3.0391
3.5338	3.0139
3.5195	2.9773
3.5052	2.9485
3.491	2.9172
3.477	2.8882
3.463	2.8611
3.4492	2.8276
3.4355	2.7983
3.4219	2.7671
3.4084	2.7319
3.395	2.7104
3.3817	2.677
3.3685	2.6518
3.3554	2.6186
3.3425	2.5864
3.3296	2.5561
3.3168	2.5207
3.3041	2.4893
3.2915	2.4592
3.279	2.4263
3.2666	2.3879
3.2543	2.355
3.2421	2.3303
3.23	2.2925
3.218	2.259
3.206	2.228
3.1942	2.1963
3.1824	2.1694
3.1707	2.1389
3.1591	2.1099
3.1476	2.0874
3.1362	2.0649
3.1249	2.0413
3.1136	2.0205
3.1024	2.0044
3.0913	1.9868
3.0803	1.977
3.0694	1.9639
3.0585	1.949
3.0477	1.9404
3.037	1.9285
3.0264	1.9158
3.0158	1.9045
3.0053	1.8916
2.9949	1.8796
2.9845	1.875
2.9743	1.8657
2.9641	1.8569
2.9539	1.8552
2.9439	1.8508
2.9339	1.8491
2.9239	1.8484
2.9141	1.8481
2.9043	1.8489
2.8946	1.8459
2.8849	1.8467
2.8753	1.8501
2.8658	1.8716
2.8563	1.8745
2.8469	1.8857
2.8375	1.8894
2.8282	1.906
2.819	1.9097
2.8098	1.9355
2.8007	1.9678
2.7917	2.0105
2.7827	2.0718
2.7738	2.1511
2.7649	2.2585
2.7561	2.3967
2.7473	2.5332
2.7386	2.6548
2.7299	2.771
2.7213	2.8474
2.7128	2.9258
2.7043	2.9683
2.6959	2.988
2.6875	3.0032
2.6791	3.0017
2.6709	3.0078
2.6626	3.0078
2.6545	3.0171
2.6463	3.0161
2.6382	3.0105
2.6302	3
2.6222	2.9888
2.6143	2.9797
2.6064	2.9824
2.5986	2.9802
2.5908	2.9617
2.583	2.9617
2.5753	2.9573
2.5677	2.9507
2.5601	2.9385
2.5525	2.9355
2.545	2.9363
2.5375	2.9211
2.5301	2.9268
2.5227	2.9141
2.5154	2.8916
2.5081	2.8911
2.5008	2.8765
2.4936	2.8577
2.4864	2.8611
2.4793	2.8335
2.4722	2.8223
2.4651	2.8181
2.4581	2.8157
2.4511	2.793
2.4442	2.7913
2.4373	2.7834
2.4305	2.7803
2.4236	2.7749
2.4169	2.7786
2.4101	2.7737
2.4034	2.7642
2.3967	2.7554
2.3901	2.7571
2.3835	2.7385
2.377	2.7402
2.3704	2.7275
2.364	2.738
2.3575	2.7207
2.3511	2.7168
2.3447	2.699
2.3384	2.6916
2.3321	2.6872
2.3258	2.6912
2.3195	2.6799
2.3133	2.6575
2.3071	2.6492
2.301	2.6545
2.2949	2.6257
2.2888	2.6323
2.2828	2.6252
2.2767	2.6223
2.2708	2.6287
2.2648	2.6238
2.2589	2.6228
2.253	2.6201
2.2471	2.6216
2.2413	2.5915
2.2355	2.594
2.2297	2.5952
2.224	2.6062
2.2183	2.5928
2.2126	2.585
2.207	2.5901
2.2013	2.6033
2.1957	2.5718
2.1902	2.5815
2.1846	2.5818
2.1791	2.5581
2.1736	2.5581
2.1682	2.5569
2.1628	2.5513
2.1574	2.5552
2.152	2.5408
2.1466	2.5571
2.1413	2.5227
2.136	2.5474
2.1308	2.5437
2.1255	2.5444
2.1203	2.5466
2.1151	2.5476
2.11	2.5373
2.1048	2.522
2.0997	2.5354
2.0946	2.5232
2.0895	2.5183
2.0845	2.53
2.0795	2.5664
