Name: Cerussite, PbCO3
Type: Mineral
Class: Carbonates
Particle Size: Fine  (0-74 Micrometers)
Sample No.: cerussite.1
Owner: JHU
Wavelength Range: IR
Origin: Sample from Australia; donated by Norma Vergo.
Description: The sample was a light tan irregular mass and appeared
Measurement: Bidirectional reflectance
X Units: Wavelength (micrometers)
Y Units: Reflectance (percent)
wavelength	value
25.0442	4.5884
24.3388	5.0566
23.6719	5.8769
23.0407	6.5146
22.4422	7.1841
21.8741	8.1137
21.334	8.8345
20.8199	9.3225
20.33	9.8052
19.8627	10.2678
19.4163	10.7231
18.9896	11.0842
18.5812	11.3742
18.19	11.4375
17.815	11.5322
17.4551	11.3933
17.1094	11.174
16.7772	11.5959
16.4576	12.081
16.15	10.697
15.8537	9.8767
15.568	9.6245
15.2925	9.1203
15.0265	5.3445
14.7697	1.8603
14.5214	4.0596
14.2814	6.6567
14.0492	9.8562
13.8244	7.8415
13.6067	7.0888
13.3957	9.5361
13.1912	10.1123
12.9929	9.3508
12.8004	8.4682
12.6135	8.4414
12.432	8.6264
12.2557	7.5432
12.0843	4.5976
11.9176	2.2102
11.7555	3.8157
11.5977	6.2507
11.444	7.1858
11.2944	9.2185
11.1487	10.2966
11.0067	10.9353
10.8682	10.8623
10.7332	10.5696
10.6015	9.7485
10.473	8.9963
10.3476	8.6765
10.2251	8.4258
10.1056	5.6015
9.98873	6.032
9.87458	8.2527
9.763	8.9138
9.65392	8.4983
9.54724	4.9282
9.44291	6.5012
9.34082	7.8567
9.24091	7.4414
9.14312	5.0115
9.04739	3.4614
8.95363	4.6597
8.8618	5.6567
8.77183	5.5686
8.68368	5.8022
8.59727	6.0317
8.51257	6.0547
8.42951	5.8733
8.34807	5.3777
8.26819	4.8852
8.18981	4.6179
8.11292	4.3247
8.03745	3.8616
7.96337	3.3201
7.89064	2.7563
7.81924	2.2986
7.74911	1.9624
7.68023	1.7207
7.61256	1.6421
7.54608	1.6365
7.48074	1.6401
7.41653	1.6704
7.35341	1.6953
7.29136	1.824
7.23034	2.1648
7.17033	2.2119
7.11132	1.9685
7.05327	1.6816
6.99616	1.7432
6.93996	1.9148
6.88467	1.9058
6.83024	1.8196
6.77667	1.6977
6.72393	1.5044
6.67201	1.2031
6.62089	0.9216
6.57054	0.7917
6.52095	0.8464
6.4721	1.0537
6.42398	1.3257
6.37657	1.6689
6.32986	2.1775
6.28382	2.7783
6.23845	3.3452
6.19373	3.9231
6.14965	4.707
6.10619	5.6499
6.06334	6.6675
6.02109	7.7163
5.97942	8.5849
5.93832	9.2563
5.89778	9.2744
5.8578	10.0097
5.81835	7.1482
5.77943	1.6977
5.74103	2.4731
5.70314	10.6189
5.66574	12.687
5.62883	12.9648
5.5924	13.8152
5.55644	14.8984
5.52093	15.2199
5.48588	15.2717
5.45127	15.5476
5.41709	15.9345
5.38334	16.2819
5.35	16.457
5.31708	16.5256
5.28456	16.6753
5.25243	16.9428
5.2207	17.2014
5.18934	17.3554
5.15836	17.4074
5.12775	17.4401
5.09749	17.363
5.0676	17.1394
5.03805	16.7944
5.00884	16.3957
4.97998	15.9787
4.95144	15.4079
4.92322	13.8034
4.89533	11.9629
4.86775	12.2214
4.84048	13.5451
4.81351	14.8789
4.78684	15.4987
4.76047	15.6254
4.73439	16.1108
4.70859	16.3046
4.68306	16.072
4.65782	15.1262
4.63284	15.3571
4.60814	16.5405
4.58369	16.6511
4.5595	16.7314
4.53557	16.624
4.51188	16.3952
4.48845	16.2602
4.46525	16.4607
4.44229	16.5153
4.41957	16.414
4.39708	16.2009
4.37481	15.7673
4.35277	15.0769
4.33096	14.1281
4.30935	13.02
4.28797	11.7063
4.26679	10.2158
4.24583	9.1584
4.22506	8.4345
4.2045	7.2939
4.18414	5.6208
4.16398	3.584
4.14401	2.9956
4.12423	4.0259
4.10464	5.4558
4.08523	6.4824
4.066	6.8493
4.04696	6.956
4.02809	7.4346
4.0094	8.0283
3.99088	8.3884
3.97253	8.7734
3.95435	9.4385
3.93634	10.7676
3.91848	12.6736
3.90079	14.0666
3.88326	14.7946
3.86589	15.1787
3.84867	15.3044
3.8316	15.2133
3.81468	14.9641
3.79791	14.5808
3.78129	14.0717
3.76482	13.3977
3.74848	12.6548
3.73229	12.0009
3.71624	11.2717
3.70032	10.1718
3.68454	8.6936
3.6689	7.1413
3.65338	6.1509
3.638	6.1899
3.62275	6.5361
3.60762	6.3799
3.59262	6.3489
3.57775	6.425
3.56299	6.5422
3.54836	6.8799
3.53385	7.3857
3.51945	8.1531
3.50517	9.2265
3.49101	10.5075
3.47696	11.7087
3.46303	12.675
3.4492	13.4375
3.43549	14.0615
3.42188	14.5593
3.40838	15.0959
3.39499	15.6455
3.38171	16.0742
3.36852	16.4939
3.35544	16.9047
3.34246	17.2636
3.32958	17.5542
3.3168	17.7858
3.30411	17.9519
3.29153	18.0024
3.27903	17.8466
3.26664	17.5847
3.25433	17.3501
3.24212	17.0185
3.23	17.3408
3.21797	17.9309
3.20603	18.3366
3.19418	18.5129
3.18241	18.5861
3.17074	18.6379
3.15914	18.7021
3.14763	18.7651
3.13621	18.7734
3.12487	18.7959
3.11361	18.8618
3.10243	18.8911
3.09133	18.9414
3.0803	18.9399
3.06936	18.9379
3.0585	18.9267
3.04771	18.8862
3.037	18.8603
3.02636	18.8256
3.0158	18.7666
3.00531	18.6972
2.99489	18.6147
2.98454	18.5246
2.97427	18.4438
2.96407	18.3393
2.95393	18.1684
2.94387	18.0468
2.93387	17.9252
2.92394	17.8564
2.91408	17.6079
2.90429	17.0161
2.89456	17.0527
2.88489	17.893
2.87529	18.3203
2.86576	18.5024
2.85628	18.5712
2.84687	18.5898
2.83752	18.872
2.82823	19.0976
2.81901	19.2326
2.80984	19.4379
2.80073	19.6032
2.79168	19.788
2.78269	19.9631
2.77376	20.0878
2.76488	20.1721
2.75606	20.2624
2.7473	20.322
2.73859	20.3996
2.72994	20.486
2.72134	20.5068
2.7128	20.4577
2.70431	20.3076
2.69587	20.2558
2.68748	20.102
2.67915	19.7958
2.67087	19.298
2.66264	18.6584
2.65446	18.2902
2.64633	18.424
2.63825	18.6945
2.63021	18.8422
2.62223	18.8654
2.6143	19.0239
2.60641	19.2365
2.59857	19.4172
2.59078	19.5751
2.58304	19.7482
2.57534	19.9277
2.56768	20.121
2.56008	20.3369
2.55251	20.5187
2.54499	20.6369
2.53752	20.7102
2.53009	20.7236
2.5227	20.6484
2.51536	20.5488
2.50806	20.4721
2.5008	20.3134
2.49358	20.1838
2.4864	20.0393
2.47927	19.9592
2.47218	19.882
2.46512	19.7775
2.45811	19.8037
2.45114	19.8666
2.4442	19.9086
2.43731	20.0039
2.43045	19.9482
2.42363	19.9365
2.41685	19.9472
2.41011	20.1191
2.40341	20.1801
2.39674	20.2314
2.39011	20.2641
2.38352	20.3959
2.37696	20.413
2.37044	20.475
2.36395	20.5585
2.35751	20.5878
2.35109	20.6337
2.34471	20.6547
2.33836	20.6982
2.33205	20.7597
2.32578	20.7988
2.31953	20.8164
2.31332	20.8369
2.30714	20.8735
2.301	20.8696
2.29489	20.9472
2.28881	20.958
2.28276	20.9589
2.27675	20.9638
2.27076	20.9746
2.26481	20.9433
2.25889	20.9716
2.253	21.0117
2.24714	21.0234
2.24131	21.0761
2.23551	21.1093
2.22974	21.1254
2.224	21.1455
2.21829	21.1586
2.21261	21.2773
2.20696	21.3496
2.20134	21.3188
2.19574	21.2914
2.19018	21.3574
2.18464	21.3388
2.17913	21.3408
2.17365	21.4277
2.16819	21.4726
2.16277	21.3984
2.15737	21.4789
2.15199	21.455
2.14665	21.4609
2.14133	21.4794
2.13603	21.5356
2.13077	21.4472
2.12552	21.5156
2.12031	21.4941
2.11512	21.5439
2.10995	21.6103
2.10481	21.5449
2.0997	21.6191
2.09461	21.5683
2.08954	21.5859
2.0845	21.6445
2.07948	21.6591
