Name: Vesuvianite Ca10Mg2Al4(SiO4)5(Si2O7)2(OH)4
Type: Mineral
Class: Silicates
Subclass: Sorosilicates
Particle Size: Fine  (0 - 74 Micrometers)
Sample No.: vesuvian.1
Owner: JHU
Wavelength Range: IR
Origin: Quebec, Canada via Norma Vergo
Description: The sample was a massive piece of striated, green,
Measurement: Bidirectional reflectance
X Units: Wavelength (micrometers)
Y Units: Reflectance (percent)
wavelength	value
25.0442	1.0811
24.3388	1.3179
23.6719	1.3008
23.0407	1.3154
22.4422	1.2798
21.8741	1.0798
21.334	1.0803
20.8199	1.2541
20.33	1.3843
19.8627	1.2734
19.4163	1.0513
18.9896	0.9324
18.5812	0.8049
18.19	0.6475
17.815	0.6208
17.4551	0.7234
17.1094	0.6548
16.7772	0.6357
16.4576	0.6714
16.15	0.6047
15.8537	0.5762
15.568	0.5693
15.2925	0.5701
15.0265	0.4478
14.7697	0.5405
14.5214	0.7041
14.2814	0.8594
14.0492	0.9355
13.8244	1.1357
13.6067	1.3042
13.3957	1.3769
13.1912	1.3975
12.9929	1.3293
12.8004	1.1213
12.6135	0.9314
12.432	0.8445
12.2557	0.8357
12.0843	0.8765
11.9176	0.8894
11.7555	0.8767
11.5977	0.8701
11.444	0.8794
11.2944	0.9412
11.1487	0.9431
11.0067	0.9109
10.8682	0.9944
10.7332	0.8855
10.6015	0.8359
10.473	0.8772
10.3476	0.9431
10.2251	0.99
10.1056	0.906
9.98873	0.7744
9.87458	1.1819
9.763	1.6323
9.65392	1.9475
9.54724	2.3364
9.44291	2.3215
9.34082	1.6186
9.24091	0.8982
9.14312	0.5222
9.04739	0.4089
8.95363	0.4338
8.8618	0.6011
8.77183	0.8464
8.68368	1.1721
8.59727	1.5525
8.51257	1.9961
8.42951	2.3823
8.34807	2.7517
8.26819	3.1499
8.18981	3.5613
8.11292	3.9153
8.03745	4.0447
7.96337	4.4018
7.89064	4.6206
7.81924	5.0117
7.74911	5.2998
7.68023	5.6474
7.61256	5.8047
7.54608	6.0464
7.48074	6.219
7.41653	6.343
7.35341	6.4548
7.29136	6.5781
7.23034	6.7082
7.17033	6.8393
7.11132	6.9912
7.05327	7.164
6.99616	7.3457
6.93996	7.4934
6.88467	7.7073
6.83024	7.8806
6.77667	7.7495
6.72393	7.5635
6.67201	8.0713
6.62089	8.3186
6.57054	8.4455
6.52095	8.5608
6.4721	8.6928
6.42398	8.7658
6.37657	8.6748
6.32986	8.3655
6.28382	8.3467
6.23845	8.4702
6.19373	8.3166
6.14965	8.0818
6.10619	7.8254
6.06334	7.6655
6.02109	7.6504
5.97942	7.7617
5.93832	7.8684
5.89778	7.9416
5.8578	7.9416
5.81835	7.8808
5.77943	7.7546
5.74103	7.532
5.70314	7.2121
5.66574	6.8352
5.62883	6.4285
5.5924	6.115
5.55644	6.009
5.52093	6.2107
5.48588	6.6243
5.45127	6.9941
5.41709	7.1528
5.38334	7.1794
5.35	7.1875
5.31708	7.2292
5.28456	7.3581
5.25243	7.6286
5.2207	7.9619
5.18934	8.2502
5.15836	8.4765
5.12775	8.6657
5.09749	8.8532
5.0676	9.0818
5.03805	9.3374
5.00884	9.581
4.97998	9.8125
4.95144	10.0359
4.92322	10.2322
4.89533	10.4192
4.86775	10.5903
4.84048	10.7304
4.81351	10.8545
4.78684	10.946
4.76047	11.0205
4.73439	11.0549
4.70859	11.0593
4.68306	11.0339
4.65782	10.9841
4.63284	10.9819
4.60814	11.1374
4.58369	11.3244
4.5595	11.4409
4.53557	11.5041
4.51188	11.5544
4.48845	11.5945
4.46525	11.6255
4.44229	11.6687
4.41957	11.7065
4.39708	11.7417
4.37481	11.7715
4.35277	11.7849
4.33096	11.7976
4.30935	11.8093
4.28797	11.8259
4.26679	11.8413
4.24583	11.855
4.22506	11.8603
4.2045	11.863
4.18414	11.8532
4.16398	11.8322
4.14401	11.802
4.12423	11.7656
4.10464	11.7468
4.08523	11.7378
4.066	11.7353
4.04696	11.749
4.02809	11.7458
4.0094	11.728
3.99088	11.6887
3.97253	11.6467
3.95435	11.602
3.93634	11.561
3.91848	11.5061
3.90079	11.4521
3.88326	11.3877
3.86589	11.3051
3.84867	11.2317
3.8316	11.1679
3.81468	11.0998
3.79791	11.0261
3.78129	10.9353
3.76482	10.8586
3.74848	10.7502
3.73229	10.6216
3.71624	10.5027
3.70032	10.3667
3.68454	10.226
3.6689	10.0835
3.65338	9.9436
3.638	9.789
3.62275	9.6279
3.60762	9.4641
3.59262	9.2866
3.57775	9.1035
3.56299	8.8989
3.54836	8.6858
3.53385	8.4756
3.51945	8.2522
3.50517	8.0332
3.49101	7.8579
3.47696	7.6889
3.46303	7.5198
3.4492	7.3533
3.43549	7.1711
3.42188	6.9819
3.40838	6.8076
3.39499	6.6252
3.38171	6.4494
3.36852	6.2588
3.35544	6.019
3.34246	5.7458
3.32958	5.4131
3.3168	5.0542
3.30411	4.7219
3.29153	4.4512
3.27903	4.2595
3.26664	4.1072
3.25433	3.9565
3.24212	3.7568
3.23	3.4709
3.21797	3.1265
3.20603	2.8035
3.19418	2.5537
3.18241	2.4187
3.17074	2.3608
3.15914	2.3877
3.14763	2.4546
3.13621	2.55
3.12487	2.6399
3.11361	2.676
3.10243	2.6992
3.09133	2.7329
3.0803	2.7895
3.06936	2.8955
3.0585	3.0222
3.04771	3.1724
3.037	3.2937
3.02636	3.3684
3.0158	3.4277
3.00531	3.4258
2.99489	3.3935
2.98454	3.3203
2.97427	3.2497
2.96407	3.1565
2.95393	3.0854
2.94387	3.0371
2.93387	2.9954
2.92394	2.99
2.91408	2.9724
2.90429	2.9687
2.89456	2.9482
2.88489	2.9062
2.87529	2.8657
2.86576	2.7898
2.85628	2.6702
2.84687	2.5727
2.83752	2.5483
2.82823	2.6904
2.81901	2.8943
2.80984	3.0452
2.80073	3.3374
2.79168	3.9121
2.78269	4.2715
2.77376	4.0132
2.76488	2.9216
2.75606	1.9241
2.7473	1.7234
2.73859	2.7114
2.72994	3.9297
2.72134	2.9316
2.7128	5.6404
2.70431	8.4016
2.69587	9.4607
2.68748	10.0788
2.67915	10.5127
2.67087	10.8772
2.66264	11.1967
2.65446	11.4087
2.64633	11.5952
2.63825	11.8379
2.63021	12.101
2.62223	12.3315
2.6143	12.5234
2.60641	12.6096
2.59857	12.7175
2.59078	12.8115
2.58304	12.872
2.57534	12.9716
2.56768	13.0649
2.56008	13.1765
2.55251	13.322
2.54499	13.4319
2.53752	13.5227
2.53009	13.5874
2.5227	13.6255
2.51536	13.624
2.50806	13.6301
2.5008	13.6215
2.49358	13.6137
2.4864	13.6084
2.47927	13.5542
2.47218	13.5295
2.46512	13.5068
2.45811	13.4585
2.45114	13.3864
2.4442	13.2798
2.43731	13.1806
2.43045	13.1465
2.42363	13.1328
2.41685	13.1626
2.41011	13.1235
2.40341	13.1425
2.39674	13.2605
2.39011	13.3982
2.38352	13.4001
2.37696	13.4094
2.37044	13.3811
2.36395	13.3606
2.35751	13.313
2.35109	13.3183
2.34471	13.3838
2.33836	13.5339
2.33205	13.6045
2.32578	13.6674
2.31953	13.6941
2.31332	13.6298
2.30714	13.6447
2.301	13.8039
2.29489	14.0918
2.28881	14.3108
2.28276	14.4624
2.27675	14.54
2.27076	14.6206
2.26481	14.7026
2.25889	14.8039
2.253	14.9582
2.24714	15.062
2.24131	15.1506
2.23551	15.2724
2.22974	15.3125
2.224	15.4318
2.21829	15.5708
2.21261	15.6001
2.20696	15.6389
2.20134	15.6848
2.19574	15.7519
2.19018	15.7795
2.18464	15.7817
2.17913	15.8469
2.17365	15.8896
2.16819	15.9394
2.16277	15.9299
2.15737	15.8877
2.15199	15.8618
2.14665	15.9084
2.14133	16.0146
2.13603	16.1045
2.13077	16.1779
2.12552	16.2592
2.12031	16.3769
2.11512	16.4726
2.10995	16.5393
2.10481	16.6145
2.0997	16.6115
2.09461	16.677
2.08954	16.8046
2.0845	16.8261
2.07948	16.8303
