Name: Ijolite
Type: Rocks
Class: Igneous
Subclass: Ultramafic
Particle Size: Solid
Sample No.: Ijolite.H1
Owner: JHU
Origin: from McClure Mountains, Colorado, via Ward's Scientific (Cat. No.
Description: A dark gray to black, medium- to coarse-grained rock
Measurement: Directional (10 degree) hemispherical reflectance
X Units: Wavelength (micrometers)
Y Units: Reflectance (percent)
wavelength	value
14.0112	3.773
13.7147	2.7933
13.4304	2.7787
13.1577	3.0059
12.8959	3.0567
12.6443	3.4298
12.4023	3.8543
12.1694	4.5738
11.945	5.2568
11.7289	6.2747
11.5203	7.2857
11.3191	7.7789
11.1248	7.9532
10.937	8.2964
10.7555	8.471
10.5799	9.2468
10.4099	10.5496
10.2454	10.8436
10.0859	11.377
9.9313	13.4405
9.7814	13.0763
9.636	12.6659
9.4948	13.095
9.3577	12.5527
9.2245	11.8127
9.095	10.7023
8.9691	8.0922
8.8467	4.7815
8.7275	2.3006
8.6116	1.261
8.4986	0.9834
8.3886	0.9766
8.2814	0.9881
8.1769	1.1268
8.075	1.2371
7.9756	1.3621
7.8786	1.5499
7.784	1.6873
7.6916	1.8351
7.6014	1.9704
7.5133	2.101
7.4272	2.2652
7.343	2.3777
7.2607	2.4539
7.1803	2.6278
7.1016	2.9098
7.0246	3.0736
6.9493	3.1683
6.8755	3.251
6.8034	3.3176
6.7327	3.3975
6.6634	3.4605
6.5956	3.5468
6.5292	3.6438
6.464	3.6325
6.4002	3.4059
6.3376	3.2154
6.2762	3.1216
6.216	3.0904
6.157	3.0192
6.099	2.9602
6.0421	3.0579
5.9863	3.2264
5.9315	3.4425
5.8777	3.6656
5.8249	3.84
5.773	4.0151
5.722	4.1972
5.6719	4.3894
5.6227	4.5431
5.5744	4.493
5.5268	4.807
5.4801	5.0182
5.4341	5.1963
5.3889	5.4075
5.3445	5.5647
5.3008	5.7267
5.2578	5.8101
5.2154	5.756
5.1738	5.6306
5.1328	5.5
5.0925	5.4815
5.0528	5.5631
5.0137	5.6838
4.9752	5.7644
4.9373	5.8474
4.9	5.9486
4.8632	6.1444
4.827	6.3849
4.7913	6.7418
4.7561	7.1348
4.7215	7.5499
4.6873	7.9678
4.6536	8.4192
4.6205	8.9566
4.5877	9.5749
4.5555	10.1716
4.5237	10.8108
4.4923	11.3189
4.4614	11.7051
4.4309	12.0761
4.4008	12.402
4.3711	12.6286
4.3418	12.8465
4.3129	13.101
4.2844	13.3589
4.2563	13.54
4.2285	13.8541
4.2011	14.0714
4.174	14.2472
4.1473	14.3868
4.1209	14.5378
4.0949	14.6526
4.0692	14.7623
4.0438	14.6552
4.0187	14.2384
3.994	13.1913
3.9695	13.062
3.9453	13.9277
3.9214	14.4776
3.8979	14.6576
3.8746	14.7787
3.8515	14.8483
3.8288	15.0904
3.8063	15.3869
3.7841	15.6124
3.7621	15.5777
3.7404	15.5013
3.7189	15.4113
3.6977	15.2732
3.6767	15.1324
3.656	14.9519
3.6355	14.7813
3.6152	14.5758
3.5951	14.3709
3.5753	14.0937
3.5557	13.8342
3.5363	13.4425
3.5171	12.7309
3.4981	12.1333
3.4793	11.7893
3.4607	11.9555
3.4423	11.7361
3.4241	11.295
3.4061	11.1189
3.3883	11.0052
3.3707	10.8109
3.3533	10.6474
3.336	10.6865
3.3189	10.5494
3.302	10.2911
3.2853	9.9909
3.2687	9.7308
3.2523	9.4633
3.2361	9.2264
3.22	9.0332
3.204	8.8345
3.1883	8.6524
3.1727	8.4752
3.1572	8.2537
3.1419	7.9922
3.1268	7.8509
3.1117	7.6568
3.0969	7.5093
3.0821	7.421
3.0675	7.2517
3.0531	7.1376
3.0388	7.005
3.0246	6.9324
3.0105	6.8296
2.9966	6.6755
2.9828	6.5909
2.9692	6.5454
2.9556	6.4397
2.9422	6.3626
2.9289	6.2751
2.9157	6.1884
2.9027	6.1195
2.8897	6.1078
2.8769	5.9667
2.8642	5.922
2.8516	5.8813
2.8391	5.828
2.8267	5.6576
2.8144	5.5865
2.8022	5.714
2.7902	5.7265
2.7782	5.869
2.7664	5.8779
2.7546	5.8767
2.7429	6.0225
2.7314	6.2984
2.7199	6.6342
2.7085	6.9956
2.6973	8.0078
2.6861	10.3938
2.675	13.7083
2.664	14.7239
2.6531	15.0541
2.6423	15.374
2.6315	15.6735
2.6209	15.795
2.6103	15.9272
2.5999	16.0139
2.5895	15.9869
2.5792	15.949
2.569	15.8641
2.5588	15.8339
2.5487	15.6729
2.5388	15.5817
2.5289	15.5069
2.519	15.4945
2.5093	15.4537
2.4996	15.4389
2.49	15.4504
2.4805	15.3325
2.471	15.4363
2.4616	15.4242
2.4523	15.4251
2.4431	15.4402
2.4339	15.5233
2.4248	15.5545
2.4157	15.5039
2.4068	15.4621
2.3979	15.2805
2.389	15.2119
2.3802	15.3377
2.3715	15.5416
2.3629	15.5667
2.3543	15.3818
2.3458	15.0156
2.3373	14.8758
2.3289	14.8127
2.3206	15.1108
2.3123	15.5064
2.3041	15.6766
2.2959	15.9187
2.2878	16.0621
2.2798	16.1981
2.2718	16.1652
2.2638	16.0623
2.2559	15.9042
2.2481	15.7938
2.2403	16.0355
2.2326	16.1648
2.225	16.1727
2.2173	15.9956
2.2098	15.8664
2.2023	15.6609
2.1948	15.6714
2.1874	15.7183
2.18	15.7652
2.1727	15.8454
2.1655	15.8266
2.1583	15.8678
2.1511	15.806
2.144	15.7947
2.1369	15.6208
2.1299	15.6377
2.1229	15.5796
2.116	15.5748
2.1091	15.4408
2.1023	15.4221
2.0955	15.4331
2.0887	15.4666
2.082	15.3633
2.06	15.3094
2.028	15.0105
1.996	14.4948
1.964	13.888
1.932	13.1509
1.9	12.8933
1.868	13.3991
1.836	13.1646
1.804	12.9311
1.772	12.4633
1.74	12.0014
1.708	11.8393
1.676	11.5765
1.644	11.3264
1.612	10.9968
1.58	10.7686
1.548	10.4318
1.516	10.0805
1.484	9.8616
1.452	9.6703
1.42	9.175
1.388	9.0698
1.356	9.0954
1.324	8.8066
1.292	8.6633
1.26	8.6098
1.228	8.488
1.196	8.4705
1.164	8.3793
1.132	8.3611
1.1	8.2776
1.068	8.4278
1.036	8.555
1.004	8.5511
0.972	8.6291
0.94	8.6739
0.908	8.7165
0.876	8.9529
0.844	9.0667
0.812	8.9645
0.795	9.0407
0.787	8.8631
0.779	8.9447
0.771	8.9092
0.763	9.4802
0.755	9.1899
0.747	9.0052
0.739	8.9486
0.731	9.3111
0.723	9.1413
0.715	9.1039
0.707	9.3777
0.699	9.4312
0.691	9.176
0.683	9.3113
0.675	9.3914
0.667	9.4855
0.659	9.6255
0.651	9.5153
0.643	9.5698
0.635	9.8193
0.627	9.1964
0.619	9.7424
0.611	9.4257
0.603	9.521
0.595	9.5878
0.587	9.6707
0.579	9.6356
0.571	9.3405
0.563	9.4302
0.555	9.1658
0.547	9.0957
0.539	9.1274
0.531	9.0478
0.523	8.9369
0.515	8.9533
0.507	9.0971
0.499	8.7499
0.491	8.7247
0.483	8.7345
0.475	8.5254
0.467	8.5377
0.459	8.4185
0.451	8.3864
0.443	8.3287
0.435	8.112
0.427	8.0653
0.419	7.6415
0.411	7.3726
0.403	7.4841
