Name: Calcite CaCO3
Type: Mineral
Class: Carbonates
Particle Size: Fine (less than 2 Micrometers)
Sample No.: calcite.1
Owner: JHU
Wavelength Range: IR
Origin: Hunt and Salisbury Collection #194B (purchased from Ward's
Description: The sample consisted of transparent euhedral crystals.
Measurement: Transmission
X Units: Wavelength (micrometers)
Y Units: Transmittance (percent)
wavelength	value
25.044	87.1287
24.339	90.2185
23.672	91.0877
23.041	93.1189
22.442	94.0154
21.874	94.8611
21.334	96.0623
20.82	96.3914
20.33	97.3445
19.863	97.4539
19.416	97.9958
18.99	98.324
18.581	98.6384
18.19	99.1374
17.815	99.1335
17.455	99.4607
17.109	99.4499
16.777	99.5779
16.458	99.6199
16.15	99.572
15.854	99.926
15.568	99.9455
15.292	99.9138
15.027	100.05
14.77	99.9412
14.521	99.6453
14.281	98.1604
14.049	76.5154
13.824	99.6799
13.607	100.161
13.396	100.418
13.191	100.305
12.993	99.9006
12.8	99.8738
12.614	100.043
12.432	99.9519
12.256	99.6604
12.084	98.8264
11.918	97.8074
11.755	95.3845
11.598	89.4763
11.444	45.4301
11.294	78.4085
11.149	95.6414
11.007	97.051
10.868	97.3674
10.733	97.0608
10.602	96.8899
10.473	96.9687
10.348	96.6794
10.225	96.2998
10.106	96.0029
9.989	95.5674
9.875	95.293
9.763	95.0789
9.654	94.709
9.547	94.407
9.443	94.0242
9.341	93.5183
9.241	92.8191
9.143	92.5457
9.047	92.407
8.954	92.217
8.862	91.4099
8.772	90.6453
8.684	89.9746
8.597	89.249
8.513	88.3992
8.43	87.7715
8.348	87.0996
8.268	86.2334
8.19	85.1436
8.113	83.8372
8.037	82.3897
7.963	80.9336
7.891	79.1062
7.819	76.8953
7.749	74.5076
7.68	71.5359
7.613	68.3184
7.546	64.7921
7.481	60.4842
7.417	55.2084
7.353	48.8368
7.291	40.9931
7.23	32.1606
7.17	22.1899
7.111	15.5029
7.053	10.1469
6.996	10.1655
6.94	11.9961
6.885	14.4409
6.83	17.5869
6.777	21.6398
6.724	27.5256
6.672	34.7001
6.621	42.2719
6.571	49.1234
6.521	55.5643
6.472	62.0011
6.424	67.7169
6.377	71.8416
6.33	74.7845
6.284	77.2991
6.238	80.0186
6.194	82.0137
6.15	83.3875
6.106	84.6375
6.063	86.0117
6.021	87.8067
5.979	89.4841
5.938	89.7803
5.898	90.4024
5.858	91.1663
5.818	91.8552
5.779	92.5017
5.741	93.0713
5.703	93.7551
5.666	94.4033
5.629	94.9451
5.592	93.8213
5.556	88.5027
5.521	94.5107
5.486	95.7571
5.451	96.4958
5.417	96.9744
5.383	97.3232
5.35	97.7327
5.317	98.0456
5.285	98.3357
5.252	98.5859
5.221	98.8508
5.189	99.0705
5.158	99.3147
5.128	99.4541
5.097	99.6006
5.068	99.7712
5.038	99.9753
5.009	100.108
4.98	100.225
4.951	100.394
4.923	100.475
4.895	100.643
4.868	100.696
4.84	100.79
4.814	100.927
4.787	101.053
4.76	101.093
4.734	101.193
4.709	101.121
4.683	101.095
4.658	101.169
4.633	101.394
4.608	101.652
4.584	101.593
4.56	101.633
4.536	101.684
4.512	101.742
4.488	101.797
4.465	101.888
4.442	101.912
4.42	101.957
4.397	101.969
4.375	102.083
4.353	102.095
4.331	102.139
4.309	102.17
4.288	102.184
4.267	102.223
4.246	102.231
4.225	102.251
4.205	102.236
4.184	102.265
4.164	102.222
4.144	102.281
4.124	102.267
4.105	102.209
4.085	102.146
4.066	102.02
4.047	101.767
4.028	101.158
4.009	99.6418
3.991	96.2898
3.973	95.7097
3.954	97.7585
3.936	100.009
3.918	100.449
3.901	100.607
3.883	100.727
3.866	100.801
3.849	100.957
3.832	101.407
3.815	101.898
3.798	102.198
3.781	102.554
3.765	102.541
3.748	102.623
3.732	102.612
3.716	102.651
3.7	102.624
3.685	102.635
3.669	102.663
3.653	102.625
3.638	102.647
3.623	102.604
3.608	102.598
3.593	102.614
3.578	102.564
3.563	102.489
3.548	102.415
3.534	102.153
3.519	101.311
3.505	100.539
3.491	99.8596
3.477	99.3718
3.463	100.862
3.449	101.143
3.435	101.162
3.422	101.084
3.408	100.922
3.395	101.026
3.382	100.953
3.369	101.01
3.355	100.621
3.342	101.383
3.33	102.061
3.317	102.188
3.304	102.362
3.292	102.404
3.279	102.362
3.267	102.315
3.254	102.291
3.242	102.375
3.23	102.324
3.218	102.324
3.206	102.285
3.194	102.22
3.182	102.231
3.171	102.029
3.159	101.97
3.148	102.011
3.136	101.945
3.125	101.951
3.114	101.856
3.102	101.643
3.091	101.346
3.08	101.407
3.069	101.336
3.058	101.138
3.048	101.049
3.037	100.996
3.026	101.08
3.016	100.824
3.005	100.662
2.995	100.553
2.985	100.273
2.974	99.865
2.964	99.6833
2.954	99.2732
2.944	99.2976
2.934	99.0417
2.924	98.9607
2.914	98.8767
2.904	98.9499
2.895	98.866
2.885	98.8669
2.875	98.6501
2.866	98.7322
2.856	98.7859
2.847	98.9431
2.838	99.1003
2.828	99.321
2.819	99.4314
2.81	99.6736
2.801	99.8454
2.792	100.052
2.783	100.204
2.774	100.39
2.765	100.513
2.756	100.773
2.747	101.027
2.739	100.974
2.73	101.05
2.721	101.054
2.713	100.931
2.704	101
2.696	101.191
2.687	101.184
2.679	101.174
2.671	101.165
2.663	101.154
2.654	101.052
2.646	101.136
2.638	101.119
2.63	101.039
2.622	101.16
2.614	101.094
2.606	100.977
2.599	101.166
2.591	101.097
2.583	100.99
2.575	100.93
2.568	100.786
2.56	101.021
2.553	100.86
2.545	100.66
2.538	100.856
2.53	100.783
2.523	100.465
2.515	100.684
2.508	100.731
2.501	100.673
2.494	100.673
2.486	100.63
2.479	100.586
2.472	100.73
2.465	100.602
2.458	100.8
2.451	100.645
2.444	100.478
2.437	100.625
2.43	100.416
2.424	100.486
2.417	100.449
2.41	100.556
2.403	100.367
2.397	100.427
2.39	100.361
2.384	100.3
2.377	100.496
2.37	100.424
2.364	100.613
2.358	100.32
2.351	100.648
2.345	99.9997
2.338	100.117
2.332	100.355
2.326	100.34
2.32	100.59
2.313	100.338
2.307	100.293
2.301	100.314
2.295	100.4
2.289	100.414
2.283	100.172
2.277	100.34
2.271	100.019
2.265	100.556
2.259	99.9997
2.253	100.269
2.247	100.164
2.241	100.406
2.236	100.4
2.23	100.328
2.224	100.213
2.218	100.226
2.213	100.297
2.207	100.142
2.201	100.22
2.196	100.148
2.19	100.26
2.185	100.175
2.179	100.133
2.174	100.293
2.168	100.242
2.163	100.261
2.157	100.179
2.152	99.8064
2.147	100.072
2.141	99.7126
2.136	100.166
2.131	100.344
2.126	100.049
2.12	100.135
2.115	100.328
2.11	100.088
2.105	100.049
2.1	100.494
2.095	100.564
2.09	99.9607
2.085	100.142
2.079	100.306
