Name: Biotite K(Mg,Fe+2)3(Al,Fe+3)Si3O10(OH,F)2
Type: Mineral
Class: Silicates
Subclass: Phyllosilicates (Mica Group)
Particle Size: Fine  (less than 2 Micrometers)
Sample No.: biotite.2
Owner: JHU
Wavelength Range: IR
Origin: Hunt and Salisbury Collection #28B (purchased from Ward's
Description: No solid sample was available.  The particulate samples
Measurement: Transmission
X Units: Wavelength (micrometers)
Y Units: Transmittance (percent)
wavelength	value
25.0442	55.3827
24.3388	50.0077
23.6719	42.9296
23.0407	33.7343
22.4422	23.6347
21.8741	16.6992
21.334	19.5722
20.8199	27.455
20.33	34.7616
19.8627	42.9667
19.4163	51.4178
18.9896	59.5985
18.5812	65.6326
18.19	70.8865
17.815	74.6541
17.4551	76.701
17.1094	76.9666
16.7772	76.6297
16.4576	76.7225
16.15	76.7967
15.8537	76.2479
15.568	75.076
15.2925	75.3318
15.0265	75.8064
14.7697	73.5975
14.5214	73.5906
14.2814	79.3592
14.0492	78.2684
13.8244	76.2703
13.6067	77.91
13.3957	79.1936
13.1912	79.18
12.9929	79.1189
12.8004	79.4905
12.6135	81.0257
12.432	82.7049
12.2557	84.9768
12.0843	84.7093
11.9176	82.3015
11.7555	79.2488
11.5977	75.2566
11.444	70.2615
11.2944	66.1854
11.1487	61.971
11.0067	57.3421
10.8682	51.9432
10.7332	45.223
10.6015	36.7216
10.473	25.8993
10.3476	17.2016
10.2252	14.313
10.1056	11.5849
9.98873	8.1567
9.87458	9.084
9.763	15.0888
9.65392	23.1704
9.54724	31.9242
9.44291	38.2177
9.34082	42.4872
9.24091	46.7762
9.14312	52.4086
9.04739	59.8558
8.95363	66.8494
8.8618	71.6776
8.77183	75.4012
8.68368	78.2142
8.59727	80.6863
8.51257	83.1057
8.42952	85.1385
8.34807	86.9509
8.26819	88.322
8.18981	89.387
8.11292	90.2903
8.03745	90.9151
7.96337	91.4277
7.89064	91.9275
7.81924	92.363
7.74911	92.7129
7.68023	92.9971
7.61256	93.3057
7.54608	93.4685
7.48074	93.6228
7.41653	93.78
7.35341	93.833
7.29136	93.7744
7.23034	93.5967
7.17033	93.2048
7.11132	92.335
7.05327	91.2461
6.99616	90.6619
6.93996	90.7412
6.88467	91.1152
6.83024	91.8555
6.77667	92.6748
6.72393	93.3679
6.67201	94.0261
6.62089	94.5584
6.57054	94.8943
6.52095	94.9922
6.4721	95.1689
6.42398	95.2468
6.37658	95.2842
6.32986	95.3044
6.28382	95.0125
6.23845	94.5603
6.19373	93.8445
6.14965	93.1345
6.10619	93.1484
6.06334	93.5664
6.02109	94.3516
5.97942	95.2139
5.93832	95.7793
5.89778	96.1433
5.8578	96.374
5.81835	96.6218
5.77943	96.7178
5.74103	96.79
5.70314	96.9092
5.66574	96.9207
5.62883	96.9905
5.5924	97.0417
5.55644	97.0146
5.52093	97.0781
5.48588	97.1389
5.45127	97.2353
5.41709	97.3381
5.38334	97.3552
5.35	97.4563
5.31708	97.5608
5.28456	97.5986
5.25243	97.6667
5.2207	97.7236
5.18934	97.7263
5.15836	97.7566
5.12775	97.7949
5.0975	97.7673
5.0676	97.7275
5.03805	97.74
5.00884	97.7361
4.97998	97.7571
4.95144	97.8162
4.92322	97.8059
4.89533	97.7712
4.86775	97.7541
4.84048	97.7751
4.81351	97.8591
4.78684	97.8835
4.76047	97.9089
4.73439	97.8972
4.70859	97.8918
4.68306	97.8772
4.65782	97.947
4.63284	97.9709
4.60814	97.9719
4.58369	98.0154
4.5595	98.0007
4.53557	97.9792
4.51188	97.969
4.48845	97.9236
4.46525	97.9099
4.44229	97.9172
4.41957	97.9197
4.39708	97.8655
4.37481	97.8943
4.35277	97.9143
4.33096	97.9338
4.30935	97.8948
4.28797	97.8557
4.26679	97.8933
4.24583	97.8791
4.22506	97.9387
4.2045	97.8811
4.18414	97.9241
4.16398	97.8928
4.14401	97.8264
4.12423	97.8542
4.10464	97.905
4.08523	97.8035
4.066	97.8162
4.04696	97.8269
4.02809	97.7961
4.0094	97.8074
3.99088	97.6941
3.97253	97.7078
3.95435	97.76
3.93634	97.7151
3.91848	97.7639
3.90079	97.7517
3.88326	97.7073
3.86589	97.5886
3.84867	97.6091
3.8316	97.5925
3.81468	97.6077
3.79791	97.5535
3.78129	97.4983
3.76482	97.4646
3.74848	97.4529
3.73229	97.3406
3.71624	97.2634
3.70032	97.2507
3.68454	97.2058
3.6689	97.0901
3.65338	97.0896
3.638	97.0413
3.62275	96.9314
3.60762	96.8533
3.59262	96.8337
3.57775	96.8147
3.56299	96.7595
3.54836	96.6584
3.53385	96.5857
3.51945	96.4553
3.50517	96.342
3.49101	96.2683
3.47696	96.2058
3.46303	96.1345
3.4492	96.0789
3.43549	95.9089
3.42188	95.7541
3.40838	95.6541
3.39499	95.6526
3.38171	95.5178
3.36852	95.4807
3.35544	95.3621
3.34246	95.3201
3.32958	95.2986
3.3168	95.1233
3.30411	95.0359
3.29153	94.9065
3.27903	94.7639
3.26664	94.6409
3.25433	94.49
3.24212	94.3591
3.23	94.1834
3.21797	93.9963
3.20603	93.8362
3.19418	93.6951
3.18241	93.4919
3.17074	93.3347
3.15914	93.114
3.14763	92.8357
3.13621	92.532
3.12487	92.2253
3.11361	92.0916
3.10243	91.7332
3.09133	91.3963
3.0803	91.0095
3.06936	90.822
3.0585	90.5916
3.04771	90.2761
3.037	89.9812
3.02636	89.6785
3.0158	89.242
3.00531	88.8035
2.99489	88.3269
2.98454	87.8718
2.97427	87.1648
2.96407	86.5037
2.95393	85.9783
2.94387	85.533
2.93387	85.1863
2.92394	84.8924
2.91408	84.8836
2.90429	84.9978
2.89456	85.2224
2.88489	85.4412
2.87529	85.8015
2.86576	86.1609
2.85628	86.4392
2.84687	86.8679
2.83752	87.3865
2.82823	87.8406
2.81901	88.3054
2.80984	88.9373
2.80073	89.7312
2.79168	90.3787
2.78269	91.2009
2.77376	91.9685
2.76488	92.574
2.75606	93.4138
2.7473	94.0085
2.73859	94.238
2.72994	94.2781
2.72134	94.4382
2.7128	94.2283
2.70431	95.1209
2.69587	96.0876
2.68748	96.7976
2.67915	97.1804
2.67087	97.1892
2.66264	97.1638
2.65446	97.3513
2.64633	97.238
2.63825	97.2654
2.63021	97.2341
2.62223	97.2537
2.6143	97.3484
2.60641	97.2742
2.59857	97.1716
2.59078	97.2693
2.58304	97.4275
2.57534	97.2986
2.56768	97.1189
2.56008	97.3943
2.55251	97.1716
2.54499	97.1775
2.53752	97.2732
2.53009	97.3005
2.5227	97.197
2.51536	97.2517
2.50806	97.4001
2.5008	97.2419
2.49358	97.3396
2.4864	97.2693
2.47927	97.2576
2.47218	97.1345
2.46512	97.1013
2.45811	97.2673
2.45114	97.2068
2.4442	97.3318
2.43731	97.3396
2.43045	97.2224
2.42363	97.363
2.41685	97.2537
2.41011	97.3083
2.40341	97.2615
2.39674	97.0583
2.39011	97.1736
2.38352	97.2751
2.37696	97.1013
2.37044	97.113
2.36395	97.0017
2.35751	97.0662
2.35109	97.1091
2.34471	97.2185
2.33836	97.0564
2.33205	96.9333
2.32578	97.156
2.31953	97.408
2.31332	97.0876
2.30714	97.0876
2.301	96.9724
2.29489	97.156
2.28881	97.1248
2.28276	97.1248
2.27675	97.0486
2.27076	96.9392
2.26481	96.9626
2.25889	97.0701
2.253	97.2517
2.24714	97.0798
2.24131	96.8669
2.23551	96.947
2.22974	97.2576
2.224	96.9763
2.21829	96.8845
2.21261	97.0251
2.20696	97.1267
2.20134	96.947
2.19574	96.8669
2.19018	96.9705
2.18464	96.8533
2.17913	96.7029
2.17365	97.0232
2.16819	96.8123
2.16277	97.0076
2.15737	96.9412
2.15199	96.406
2.14665	96.7146
2.14133	96.8005
2.13603	96.3669
2.13077	96.8787
2.12552	96.8201
2.12031	96.7888
2.11512	96.4412
2.10995	96.6951
2.10481	96.6873
2.0997	96.5662
2.09461	96.8748
2.08954	96.8162
2.0845	96.6873
2.07948	96.7693
