Name: Beryl Be3Al2Si6O18
Type: Mineral
Class: Silicates
Subclass: Cyclosilicates (Ring Silicates)
Particle Size: Coarse  (74-250 Micrometer)
Sample No.: beryl.2
Owner: JHU
Wavelength Range: IR
Origin: Smithsonian NMNH 134700Sample from Palermo Mine, North
Description: Hand sample was pale green to white in color and
Measurement: Bidirectional reflectance
X Units: Wavelength (micrometers)
Y Units: Reflectance (percent)
wavelength	value
25.044	2.0207
24.339	2.4031
23.672	3.0129
23.041	4.2231
22.442	4.8266
21.874	5.2952
21.334	5.1001
20.82	3.0373
20.33	3.8118
19.863	2.4875
19.416	3.4163
18.99	4.3943
18.581	4.4067
18.19	3.7954
17.815	1.7998
17.455	1.1233
17.109	1.541
16.777	3.1973
16.458	2.2541
16.15	0.6572
15.854	0.9434
15.568	1.2729
15.292	1.543
15.027	1.7664
14.77	2.8237
14.521	3.4319
14.281	2.4739
14.049	1.1763
13.824	1.1956
13.607	1.6443
13.396	2.0518
13.191	2.155
12.993	1.3789
12.8	1.1421
12.614	1.481
12.432	1.9543
12.256	2.0725
12.084	1.7146
11.918	1.1592
11.755	0.98
11.598	1.1272
11.444	1.3223
11.294	1.5471
11.149	1.8176
11.007	2.1848
10.868	2.7134
10.733	3.4065
10.602	4.1777
10.473	5.3223
10.348	5.9787
10.225	5.543
10.106	4.3745
9.989	2.7659
9.875	3.0542
9.763	3.2231
9.654	2.7331
9.547	2.1633
9.443	2.0132
9.341	2.2715
9.241	2.4834
9.143	2.6626
9.047	2.791
8.954	2.7119
8.862	2.4514
8.772	2.2161
8.684	1.9675
8.597	1.9158
8.513	2.0854
8.43	2.303
8.348	3.095
8.268	3.5393
8.19	3.7112
8.113	3.8557
8.037	3.9597
7.963	4.0183
7.891	4.0989
7.819	4.2856
7.749	3.5764
7.68	2.5349
7.613	1.6218
7.546	0.9275
7.481	0.4702
7.417	0.2192
7.353	0.1541
7.291	0.1589
7.23	0.1931
7.17	0.2173
7.111	0.2439
7.053	0.2639
6.996	0.2952
6.94	0.3196
6.885	0.335
6.83	0.3582
6.777	0.3816
6.724	0.4197
6.672	0.4463
6.621	0.4802
6.571	0.5264
6.521	0.5327
6.472	0.478
6.424	0.5124
6.377	0.5725
6.33	0.5964
6.284	0.5898
6.238	0.5144
6.194	0.5579
6.15	0.5354
6.106	0.4812
6.063	0.5779
6.021	0.6455
5.979	0.7624
5.938	0.8032
5.898	0.8013
5.858	0.7764
5.818	0.7581
5.779	0.7788
5.741	0.8071
5.703	0.8291
5.666	0.8496
5.629	0.8533
5.592	0.8633
5.556	0.8953
5.521	0.9055
5.486	0.9348
5.451	0.999
5.417	1.0422
5.383	1.0754
5.35	1.0527
5.317	1.012
5.285	0.9311
5.252	0.8254
5.221	0.7388
5.189	0.7085
5.158	0.6953
5.128	0.71
5.097	0.7468
5.068	0.8259
5.038	0.9062
5.009	1.0017
4.98	1.1077
4.951	1.2358
4.923	1.353
4.895	1.5061
4.868	1.6897
4.84	1.8459
4.814	2.0129
4.787	2.2715
4.76	2.5207
4.734	2.71
4.709	2.844
4.683	2.9292
4.658	3.0166
4.633	3.1392
4.608	3.2932
4.584	3.4089
4.56	3.52
4.536	3.6321
4.512	3.7285
4.488	3.7759
4.465	3.8486
4.442	4.0007
4.42	4.2268
4.397	4.4189
4.375	4.5989
4.353	4.7239
4.331	4.7986
4.309	4.8523
4.288	4.916
4.267	4.897
4.246	4.6416
4.225	5.0932
4.205	5.3247
4.184	5.76
4.164	5.8743
4.144	5.9106
4.124	5.9365
4.105	5.9546
4.085	5.9624
4.066	6.0073
4.047	6.0725
4.028	6.1411
4.009	6.185
3.991	6.2356
3.973	6.2734
3.954	6.3115
3.936	6.3496
3.918	6.3779
3.901	6.4018
3.883	6.4319
3.866	6.4485
3.849	6.4663
3.832	6.4756
3.815	6.4856
3.798	6.4949
3.781	6.5088
3.765	6.5207
3.748	6.5102
3.732	6.521
3.716	6.5371
3.7	6.5473
3.685	6.5329
3.669	6.5281
3.653	6.532
3.638	6.5432
3.623	6.5669
3.608	6.6035
3.593	6.6096
3.578	6.6245
3.563	6.6457
3.548	6.6562
3.534	6.6689
3.519	6.667
3.505	6.6496
3.491	6.6553
3.477	6.6623
3.463	6.647
3.449	6.6113
3.435	6.5727
3.422	6.5288
3.408	6.4936
3.395	6.4736
3.382	6.4597
3.369	6.4394
3.355	6.4314
3.342	6.4089
3.33	6.3764
3.317	6.3496
3.304	6.3183
3.292	6.2978
3.279	6.28
3.267	6.2812
3.254	6.2688
3.242	6.2429
3.23	6.1597
3.218	5.9331
3.206	5.9209
3.194	5.9604
3.182	5.9128
3.171	5.7849
3.159	5.6748
3.148	5.708
3.136	5.626
3.125	5.4656
3.114	5.1411
3.102	4.5117
3.091	3.9785
3.08	4.3757
3.069	4.8926
3.058	4.998
3.048	4.9643
3.037	4.9009
3.026	4.8132
3.016	4.7024
3.005	4.6284
2.995	4.5222
2.985	4.4162
2.974	4.3386
2.964	4.2644
2.954	4.1587
2.944	4.0066
2.934	3.8777
2.924	3.7097
2.914	3.5122
2.904	3.2959
2.895	3.062
2.885	2.8154
2.875	2.5598
2.866	2.313
2.856	2.1006
2.847	1.8655
2.838	1.7314
2.828	1.6721
2.819	1.4438
2.81	1.2346
2.801	1.0247
2.792	0.7822
2.783	0.6599
2.774	0.666
2.765	0.9319
2.756	0.9109
2.747	0.8137
2.739	0.7036
2.73	0.6682
2.721	0.6504
2.713	0.637
2.704	0.6091
2.696	0.6418
2.687	0.759
2.679	0.8948
2.671	1.0137
2.663	1.1357
2.654	1.2729
2.646	1.4397
2.638	1.5828
2.63	1.6611
2.622	1.7275
2.614	1.7422
2.606	1.7158
2.599	1.7261
2.591	1.7585
2.583	1.8157
2.575	1.8935
2.568	1.9834
2.56	2.1367
2.553	2.3884
2.545	2.7436
2.538	3.0234
2.53	3.199
2.523	3.2881
2.515	3.3725
2.508	3.5063
2.501	3.7349
2.494	3.977
2.486	4.2483
2.479	4.448
2.472	4.6377
2.465	4.79
2.458	4.9433
2.451	5.0759
2.444	5.1933
2.437	5.2849
2.43	5.3608
2.424	5.4233
2.417	5.4829
2.41	5.5469
2.403	5.5884
2.397	5.5644
2.39	5.5842
2.384	5.6074
2.377	5.6262
2.37	5.656
2.364	5.6575
2.358	5.7024
2.351	5.6745
2.345	5.7082
2.338	5.6977
2.332	5.7305
2.326	5.7629
2.32	5.7727
2.313	5.8398
2.307	5.8601
2.301	5.8855
2.295	5.9114
2.289	5.9255
2.283	5.9338
2.277	5.9319
2.271	5.9563
2.265	5.9624
2.259	5.9819
2.253	5.9873
2.247	5.9939
2.241	6.0124
2.236	6.0259
2.23	6.0264
2.224	6.0088
2.218	6.031
2.213	5.9949
2.207	5.9717
2.201	5.9294
2.196	5.9863
2.19	5.9836
2.185	5.998
2.179	6.0122
2.174	6.0093
2.168	6.0049
2.163	5.9939
2.157	5.9756
2.152	5.937
2.147	5.9753
2.141	6.0254
2.136	6.0903
2.131	6.0871
2.126	6.1047
2.12	6.0708
2.115	6.0906
2.11	6.081
2.105	6.091
2.1	6.1282
2.095	6.116
2.09	6.0559
2.085	6.0954
2.079	6.0749
