Name: Siltstone
Type: Rocks
Class: Sedimentary
Subclass: Siltstone
Particle Size: 0 - 75 Micrometers
Sample No.: siltstone.1
Owner: JHU
Wavelength Range: All
Origin: Sample No. 455,  The Hunt and Salisbury Collection at the U.S.
Description: This is a very fine-grained, lineated/laminated sample
Measurement: Directional (10 Degree) Hemispherical Reflectance
X Units: Wavelength (micrometers)
Y Units: Reflectance (percent)
wavelength	value
14.983	1.9814
14.645	2.3727
14.321	2.6123
14.011	2.2386
13.715	1.5658
13.43	1.6816
13.158	1.6826
12.896	1.7489
12.644	1.7617
12.402	3.6766
12.169	6.2714
11.945	7.3588
11.729	7.3735
11.52	6.8115
11.319	6.5899
11.125	5.9758
10.937	4.9914
10.755	4.1064
10.58	3.3258
10.41	2.6786
10.245	2.4101
10.086	2.3459
9.931	2.3243
9.781	2.2339
9.636	2.3566
9.495	2.0868
9.358	1.9173
9.225	1.895
9.095	1.7787
8.969	1.7316
8.847	1.7323
8.727	1.9246
8.612	2.1614
8.499	2.465
8.389	2.798
8.281	2.9448
8.177	2.7049
8.075	2.3175
7.976	2.1723
7.879	2.2116
7.784	2.5605
7.692	2.9907
7.601	3.5357
7.513	4.2094
7.427	4.8301
7.343	5.5062
7.261	6.3862
7.18	7.1819
7.102	7.7811
7.025	7.8722
6.949	8.3764
6.875	9.4788
6.803	10.731
6.733	11.933
6.663	12.991
6.596	13.834
6.529	14.642
6.464	15.18
6.4	14.889
6.338	14.1
6.276	13.191
6.216	12.027
6.157	11.099
6.099	11.278
6.042	12.361
5.986	14.333
5.931	15.753
5.878	16.816
5.825	17.701
5.773	17.765
5.722	17.699
5.672	17.656
5.623	18.084
5.574	18.552
5.527	20.431
5.48	22.366
5.434	23.854
5.389	25.19
5.345	25.935
5.301	26.905
5.258	28.132
5.215	29.732
5.174	31.72
5.133	33.466
5.093	35.335
5.053	36.676
5.014	37.347
4.975	38.426
4.937	39.591
4.9	39.732
4.863	40.645
4.827	41.381
4.791	41.277
4.756	41.823
4.721	42.707
4.687	43.328
4.654	44.002
4.62	45.118
4.588	46.267
4.556	47.392
4.524	48.51
4.492	49.521
4.461	50.509
4.431	51.316
4.401	52.024
4.371	52.758
4.342	53.491
4.313	54.15
4.284	54.739
4.256	55.287
4.229	55.726
4.201	56.15
4.174	56.404
4.147	56.682
4.121	56.902
4.095	57.051
4.069	57.159
4.044	57.18
4.019	57.052
3.994	56.681
3.97	56.58
3.945	56.847
3.921	56.93
3.898	56.834
3.875	56.671
3.852	56.489
3.829	56.328
3.806	56.127
3.784	55.837
3.762	55.448
3.74	55.005
3.719	54.559
3.698	54.064
3.677	53.528
3.656	52.956
3.636	52.294
3.615	51.565
3.595	50.77
3.575	49.876
3.556	48.856
3.536	47.676
3.517	46.454
3.498	45.589
3.479	45.508
3.461	44.858
3.442	43.92
3.424	43.237
3.406	42.382
3.388	41.293
3.371	40.237
3.353	39.242
3.336	38.396
3.319	37.342
3.302	36.283
3.285	35.169
3.269	34.183
3.252	33.287
3.236	32.469
3.22	31.621
3.204	30.605
3.188	29.458
3.173	28.261
3.157	27.086
3.142	25.969
3.127	24.909
3.112	23.961
3.097	23.162
3.082	22.427
3.067	21.914
3.053	21.429
3.039	20.964
3.025	20.425
3.011	19.878
2.997	19.294
2.983	18.645
2.969	18.146
2.956	17.767
2.942	17.594
2.929	17.45
2.916	17.499
2.903	17.685
2.89	17.826
2.877	17.974
2.864	17.837
2.852	17.199
2.839	16.235
2.827	15.233
2.814	14.335
2.802	13.705
2.79	13.762
2.778	14.314
2.766	14.913
2.755	16.452
2.743	19.762
2.731	24.499
2.72	29.754
2.708	38.787
2.697	44.718
2.686	49.387
2.675	51.216
2.664	52.372
2.653	53.893
2.642	54.467
2.632	54.039
2.621	54.175
2.61	54.51
2.6	54.395
2.59	54.413
2.579	54.667
2.569	54.766
2.559	54.854
2.549	55
2.539	55.098
2.529	55.076
2.519	55.086
2.509	55.058
2.5	55.033
2.49	55.002
2.481	55.053
2.471	55.011
2.462	54.986
2.452	55.005
2.443	55.019
2.434	54.998
2.425	55.022
2.416	55.009
2.407	54.959
2.398	54.879
2.389	54.831
2.38	54.712
2.372	54.693
2.363	54.575
2.354	54.476
2.346	54.407
2.337	54.375
2.329	54.361
2.321	54.212
2.312	54.155
2.304	54.18
2.296	54.184
2.288	54.361
2.28	54.564
2.272	54.602
2.264	54.536
2.256	54.419
2.248	54.359
2.24	54.388
2.233	54.378
2.225	54.373
2.217	54.315
2.21	54.362
2.202	54.382
2.195	54.428
2.187	54.42
2.18	54.523
2.173	54.459
2.166	54.381
2.158	54.378
2.151	54.261
2.144	54.288
2.137	54.159
2.13	54.097
2.123	53.988
2.116	53.93
2.109	53.904
2.102	53.832
2.095	53.854
2.089	53.75
2.082	53.726
2.06	53.11
2.028	52.383
1.996	51.264
1.964	49.969
1.932	48.799
1.9	49.522
1.868	48.938
1.836	50.11
1.804	49.394
1.772	48.872
1.74	48.262
1.708	48.439
1.676	47.92
1.644	47.11
1.612	47.099
1.58	46.847
1.548	46.645
1.516	46.239
1.484	45.566
1.452	45.187
1.42	44.759
1.388	44.705
1.356	43.891
1.324	44.201
1.292	43.839
1.26	43.711
1.228	43.711
1.196	43.525
1.164	42.725
1.132	42.837
1.1	42.448
1.068	43.025
1.036	42.853
1.004	42.709
0.972	42.301
0.94	41.529
0.908	40.677
0.876	40.18
0.844	40.223
0.812	40.532
0.795	39.615
0.787	39.398
0.779	39.371
0.771	38.951
0.763	38.658
0.755	38.271
0.747	38.336
0.739	38.071
0.731	37.763
0.723	37.098
0.715	36.792
0.707	36.626
0.699	36.371
0.691	36.248
0.683	35.951
0.675	35.349
0.667	35.487
0.659	35.016
0.651	34.949
0.643	34.613
0.635	34.311
0.627	34.107
0.619	33.664
0.611	33.4
0.603	32.78
0.595	32.403
0.587	31.894
0.579	31.44
0.571	30.86
0.563	30.15
0.555	29.493
0.547	29.256
0.539	28.861
0.531	28.871
0.523	28.126
0.515	27.804
0.507	27.412
0.499	27.39
0.491	26.895
0.483	26.699
0.475	26.356
0.467	25.847
0.459	25.56
0.451	25.419
0.443	24.686
0.435	23.795
0.427	23.309
0.419	22.815
0.411	22.013
0.403	21.607
