Name: ALHA 77003
Type: Stony Meteorites
Class: Carbonaceous chondrite
Subclass: CO3
Particle Size: 0-75 micrometers
Sample No.: ALHA 77003
Owner: JHU
Origin: Meteorite found in Antarctica in 1977.  Sample supplied by Tom Jones.
Description: None.
Measurement: Bidirectional reflectance
X Units: Wavelength (micrometers)
Y Units: Reflectance (percent)
wavelength	value
25.044	0.7617
24.339	0.7275
23.672	0.6855
23.041	0.6506
22.442	0.6855
21.874	0.6926
21.334	0.7192
20.82	0.7253
20.33	0.6926
19.863	0.7139
19.416	0.7429
18.99	0.6978
18.581	0.6477
18.19	0.6155
17.815	0.5937
17.455	0.646
17.109	0.6426
16.777	0.5752
16.458	0.5503
16.15	0.5898
15.854	0.6584
15.568	0.668
15.292	0.7124
15.027	0.8218
14.77	0.8716
14.521	0.9641
14.281	1.1284
14.049	1.2556
13.824	1.2395
13.607	1.3523
13.396	1.6428
13.191	1.8935
12.993	2.0723
12.8	2.1477
12.614	2.1103
12.432	1.9844
12.256	1.7195
12.084	1.2351
11.918	0.8906
11.755	0.9487
11.598	0.9097
11.444	0.8545
11.294	0.7773
11.149	0.7417
11.007	0.7278
10.868	0.7629
10.733	0.8086
10.602	0.7881
10.473	0.7756
10.348	0.7236
10.225	0.6855
10.106	0.6248
9.989	0.6213
9.875	0.6282
9.763	0.6379
9.654	0.7065
9.547	0.8127
9.443	0.8755
9.341	0.8687
9.241	0.8352
9.143	0.8591
9.047	0.9512
8.954	1.0503
8.862	1.166
8.772	1.272
8.684	1.3567
8.597	1.5508
8.513	1.6846
8.43	1.8418
8.348	2.0244
8.268	2.1885
8.19	2.3423
8.113	2.4856
8.037	2.6189
7.963	2.7275
7.891	2.8203
7.819	2.904
7.749	2.9695
7.68	3.0105
7.613	3.0361
7.546	3.0603
7.481	3.0781
7.417	3.0864
7.353	3.105
7.291	3.1328
7.23	3.1611
7.17	3.2026
7.111	3.25
7.053	3.3188
6.996	3.3774
6.94	3.4363
6.885	3.4751
6.83	3.479
6.777	3.4812
6.724	3.46
6.672	3.4504
6.621	3.4595
6.571	3.4958
6.521	3.5185
6.472	3.5525
6.424	3.5893
6.377	3.5886
6.33	3.6033
6.284	3.6213
6.239	3.6641
6.194	3.708
6.15	3.7248
6.106	3.7168
6.063	3.6831
6.021	3.6684
5.979	3.7466
5.938	3.842
5.898	3.9036
5.858	3.9321
5.818	3.9734
5.779	3.9726
5.741	3.9363
5.703	3.8799
5.666	3.8528
5.629	3.8943
5.592	3.9451
5.556	3.9861
5.521	3.9927
5.486	3.9975
5.451	4.0117
5.417	4.0417
5.383	4.0679
5.35	4.0898
5.317	4.0981
5.285	4.1111
5.252	4.1191
5.221	4.1274
5.189	4.1289
5.158	4.1221
5.128	4.1299
5.098	4.1462
5.068	4.1694
5.038	4.1863
5.009	4.2056
4.98	4.2327
4.951	4.2522
4.923	4.2715
4.895	4.2864
4.868	4.2998
4.84	4.3083
4.814	4.3179
4.787	4.3291
4.761	4.3349
4.734	4.3423
4.709	4.3469
4.683	4.355
4.658	4.3625
4.633	4.3686
4.608	4.3804
4.584	4.3965
4.559	4.4036
4.536	4.4067
4.512	4.4143
4.488	4.418
4.465	4.4282
4.442	4.4297
4.42	4.4397
4.397	4.4429
4.375	4.4477
4.353	4.4431
4.331	4.4426
4.309	4.4346
4.288	4.4402
4.267	4.4372
4.246	4.4338
4.225	4.4343
4.205	4.4275
4.184	4.4231
4.164	4.4099
4.144	4.4048
4.124	4.3994
4.105	4.394
4.085	4.3891
4.066	4.3848
4.047	4.3808
4.028	4.3755
4.009	4.3767
3.991	4.374
3.973	4.3684
3.954	4.3628
3.936	4.3601
3.918	4.3537
3.901	4.3513
3.883	4.3462
3.866	4.343
3.849	4.3352
3.832	4.3284
3.815	4.3164
3.798	4.3098
3.781	4.3013
3.765	4.2905
3.748	4.2815
3.732	4.2678
3.716	4.2527
3.7	4.2395
3.684	4.2214
3.669	4.2136
3.653	4.1941
3.638	4.1807
3.623	4.1638
3.608	4.1572
3.593	4.1389
3.578	4.1255
3.563	4.1057
3.548	4.092
3.534	4.0735
3.519	4.0513
3.505	4.0286
3.491	4.02
3.477	4.0112
3.463	3.9951
3.449	3.978
3.436	3.9495
3.422	3.9219
3.408	3.9128
3.395	3.9055
3.382	3.8916
3.369	3.8745
3.355	3.8635
3.342	3.8481
3.33	3.8345
3.317	3.8179
3.304	3.7949
3.292	3.7761
3.279	3.751
3.267	3.7327
3.254	3.7092
3.242	3.686
3.23	3.6728
3.218	3.647
3.206	3.6294
3.194	3.6086
3.182	3.583
3.171	3.5662
3.159	3.5459
3.148	3.5298
3.136	3.5066
3.125	3.4927
3.114	3.469
3.102	3.4546
3.091	3.4375
3.08	3.4231
3.069	3.4038
3.059	3.3904
3.048	3.375
3.037	3.3562
3.026	3.3428
3.016	3.3249
3.005	3.3147
2.995	3.2937
2.985	3.2815
2.974	3.2715
2.964	3.2541
2.954	3.2505
2.944	3.2363
2.934	3.2263
2.924	3.2278
2.914	3.2207
2.904	3.2192
2.895	3.2153
2.885	3.2168
2.875	3.2244
2.866	3.2217
2.856	3.2297
2.847	3.2414
2.837	3.2544
2.828	3.2583
2.819	3.2834
2.81	3.2974
2.801	3.3245
2.792	3.3476
2.783	3.3752
2.774	3.3938
2.765	3.4407
2.756	3.4775
2.747	3.4966
2.739	3.5464
2.73	3.5544
2.721	3.5886
2.713	3.5784
2.704	3.5991
2.696	3.6313
2.688	3.633
2.679	3.644
2.671	3.6577
2.663	3.6382
2.655	3.6284
2.646	3.6196
2.638	3.6081
2.63	3.6108
2.622	3.5945
2.614	3.5837
2.606	3.5869
2.599	3.5625
2.591	3.562
2.583	3.5583
2.575	3.5312
2.568	3.5259
2.56	3.5063
2.553	3.5037
2.545	3.4814
2.538	3.4846
2.53	3.48
2.523	3.4541
2.515	3.4517
2.508	3.4368
2.501	3.4267
2.494	3.4123
2.486	3.4263
2.479	3.4114
2.472	3.4062
2.465	3.3955
2.458	3.3811
2.451	3.3765
2.444	3.3616
2.437	3.3589
2.43	3.3503
2.424	3.3335
2.417	3.3252
2.41	3.3281
2.403	3.2986
2.397	3.3025
2.39	3.2908
2.384	3.2734
2.377	3.2856
2.37	3.2612
2.364	3.2573
2.357	3.2541
2.351	3.2371
2.345	3.2278
2.338	3.2302
2.332	3.2109
2.326	3.2121
2.32	3.2107
2.313	3.2019
2.307	3.1926
2.301	3.1921
2.295	3.1902
2.289	3.1885
2.283	3.1799
2.277	3.1811
2.271	3.1785
2.265	3.1726
2.259	3.1728
2.253	3.1599
2.247	3.1645
2.241	3.1428
2.236	3.1418
2.23	3.1482
2.224	3.1428
2.218	3.1257
2.213	3.1352
2.207	3.1142
2.201	3.1218
2.196	3.1301
2.19	3.1238
2.185	3.1194
2.179	3.1377
2.174	3.1294
2.168	3.1284
2.163	3.1284
2.157	3.125
2.152	3.1282
2.147	3.1394
2.141	3.1304
2.136	3.1328
2.131	3.1443
2.126	3.1348
2.12	3.1489
2.115	3.144
2.11	3.137
2.105	3.1521
2.1	3.1526
2.095	3.1543
2.09	3.1702
2.084	3.1433
2.079	3.1694
