Name: Basalt
Type: Rocks
Class: Igneous
Subclass: Mafic
Particle Size: Solid
Sample No.: Basalt.7
Owner: JHU
Origin: from Kilauea, via Rosalind Helz, USGS, Reston, VA (Cat. No. KI
Description: A gray, porphyritic, vuggy or vesicular rock with green
Measurement: Directional (10 degree) hemispherical reflectance
X Units: Wavelength (micrometers)
Y Units: Reflectance (percent)
wavelength	value
14.0112	1.5572
13.7147	1.3055
13.4304	1.5403
13.1577	2.4776
12.8959	2.8472
12.6443	2.9486
12.4023	3.1839
12.1694	4.0875
11.945	4.7418
11.7289	5.6763
11.5203	6.9541
11.3191	8.2371
11.1248	8.8779
10.937	9.4359
10.7555	10.1939
10.5799	10.2948
10.4099	10.1974
10.2454	10.2156
10.0859	10.487
9.9313	10.9779
9.7814	10.9784
9.636	10.8206
9.4948	10.594
9.3577	10.62
9.2245	10.8504
9.095	11.4321
8.9691	10.8886
8.8467	9.1
8.7275	7.5394
8.6116	6.7978
8.4986	6.2364
8.3886	5.5732
8.2814	4.4238
8.1769	2.6843
8.075	1.7372
7.9756	1.3179
7.8786	1.1899
7.784	1.1789
7.6916	1.2579
7.6014	1.3195
7.5133	1.4517
7.4272	1.586
7.343	1.6364
7.2607	1.8018
7.1803	1.9502
7.1016	2.0332
7.0246	2.1724
6.9493	2.2823
6.8755	2.3517
6.8034	2.3972
6.7327	2.4605
6.6634	2.5186
6.5956	2.542
6.5292	2.5605
6.464	2.5844
6.4002	2.6527
6.3376	2.6709
6.2762	2.7239
6.216	2.7436
6.157	2.7443
6.099	2.8306
6.0421	2.8919
5.9863	3.0155
5.9315	3.1333
5.8777	3.2496
5.8249	3.3846
5.773	3.4788
5.722	3.5724
5.6719	3.6771
5.6227	3.7636
5.5744	3.8871
5.5268	3.949
5.4801	4.0132
5.4341	4.0512
5.3889	4.0873
5.3445	4.0873
5.3008	4.1501
5.2578	4.2033
5.2154	4.3579
5.1738	4.446
5.1328	4.566
5.0925	4.6737
5.0528	4.807
5.0137	4.9453
4.9752	5.1735
4.9373	5.3831
4.9	5.5772
4.8632	5.8218
4.827	6.0039
4.7913	6.1919
4.7561	6.4181
4.7215	6.6485
4.6873	6.9202
4.6536	7.158
4.6205	7.4618
4.5877	7.7992
4.5555	8.059
4.5237	8.3665
4.4923	8.567
4.4614	8.7454
4.4309	8.899
4.4008	9.0558
4.3711	9.2346
4.3418	9.4186
4.3129	9.5561
4.2844	9.6979
4.2563	9.8379
4.2285	10.0088
4.2011	10.0952
4.174	10.2096
4.1473	10.2919
4.1209	10.3927
4.0949	10.4756
4.0692	10.5421
4.0438	10.5928
4.0187	10.6577
3.994	10.7737
3.9695	10.8155
3.9453	10.8722
3.9214	10.9542
3.8979	11.0029
3.8746	11.07
3.8515	11.1534
3.8288	11.1862
3.8063	11.2423
3.7841	11.2987
3.7621	11.3732
3.7404	11.408
3.7189	11.442
3.6977	11.489
3.6767	11.5186
3.656	11.5865
3.6355	11.6421
3.6152	11.669
3.5951	11.7135
3.5753	11.7267
3.5557	11.748
3.5363	11.7825
3.5171	11.7626
3.4981	11.7082
3.4793	11.7225
3.4607	11.7869
3.4423	11.767
3.4241	11.6477
3.4061	11.6843
3.3883	11.7654
3.3707	11.789
3.3533	11.8247
3.336	11.8577
3.3189	11.886
3.302	11.8739
3.2853	11.8242
3.2687	11.8163
3.2523	11.7851
3.2361	11.73
3.22	11.6847
3.204	11.6873
3.1883	11.5959
3.1727	11.5524
3.1572	11.4898
3.1419	11.4473
3.1268	11.4182
3.1117	11.3412
3.0969	11.3259
3.0821	11.3111
3.0675	11.3392
3.0531	11.2694
3.0388	11.3148
3.0246	11.3145
3.0105	11.2985
2.9966	11.2516
2.9828	11.234
2.9692	11.142
2.9556	11.1152
2.9422	11.1457
2.9289	11.1098
2.9157	11.069
2.9027	11.1026
2.8897	11.0221
2.8769	11.0475
2.8642	11.0442
2.8516	10.9685
2.8391	10.9812
2.8267	10.9683
2.8144	10.9343
2.8022	10.909
2.7902	10.9547
2.7782	10.9764
2.7664	10.9673
2.7546	10.9908
2.7429	11.0533
2.7314	11.2626
2.7199	11.7443
2.7085	12.3808
2.6973	12.6607
2.6861	12.7389
2.675	12.8433
2.664	12.8747
2.6531	12.7673
2.6423	12.7469
2.6315	12.6722
2.6209	12.6651
2.6103	12.5742
2.5999	12.4589
2.5895	12.389
2.5792	12.3566
2.569	12.2093
2.5588	12.1291
2.5487	12.0947
2.5388	11.9698
2.5289	11.8922
2.519	11.8865
2.5093	11.7372
2.4996	11.7574
2.49	11.5607
2.4805	11.568
2.471	11.4893
2.4616	11.44
2.4523	11.4012
2.4431	11.2399
2.4339	11.2476
2.4248	11.1956
2.4157	11.2713
2.4068	11.2481
2.3979	11.1192
2.389	11.155
2.3802	10.9917
2.3715	11.0646
2.3629	10.9286
2.3543	10.9624
2.3458	11.0051
2.3373	10.9129
2.3289	10.926
2.3206	10.9075
2.3123	10.9626
2.3041	10.9849
2.2959	10.9694
2.2878	10.941
2.2798	10.8825
2.2718	10.9164
2.2638	11.022
2.2559	10.9973
2.2481	10.9952
2.2403	11.0538
2.2326	10.9973
2.225	11.0519
2.2173	11.0693
2.2098	11.0964
2.2023	11.1483
2.1948	11.1867
2.1874	11.1991
2.18	11.219
2.1727	11.2314
2.1655	11.2784
2.1583	11.2968
2.1511	11.2952
2.144	11.3341
2.1369	11.3221
2.1299	11.4806
2.1229	11.5132
2.116	11.5226
2.1091	11.6459
2.1023	11.6203
2.0955	11.6543
2.0887	11.6127
2.082	11.6817
2.06	11.9194
2.028	12.0318
1.996	12.4177
1.964	12.6075
1.932	13.0257
1.9	13.0321
1.868	13.5477
1.836	13.8233
1.804	14.1582
1.772	14.413
1.74	14.7949
1.708	15.1504
1.676	15.3373
1.644	15.4281
1.612	15.621
1.58	15.6981
1.548	15.8018
1.516	15.7489
1.484	15.7885
1.452	15.4961
1.42	15.4326
1.388	15.1657
1.356	15.1376
1.324	14.9277
1.292	14.7032
1.26	14.5865
1.228	14.3801
1.196	14.3072
1.164	13.828
1.132	13.2844
1.1	12.5341
1.068	11.4954
1.036	11.2986
1.004	10.9949
0.972	11.3207
0.94	11.8789
0.908	12.7711
0.876	13.9489
0.844	15.1076
0.812	16.0104
0.795	16.5648
0.787	16.5257
0.779	16.566
0.771	16.8478
0.763	16.9651
0.755	17.0208
0.747	17.1463
0.739	17.1903
0.731	17.2086
0.723	17.5766
0.715	17.5372
0.707	17.3213
0.699	17.3337
0.691	17.3574
0.683	17.7303
0.675	17.7328
0.667	17.4855
0.659	17.5334
0.651	17.5272
0.643	17.4311
0.635	17.4606
0.627	17.5212
0.619	17.402
0.611	17.324
0.603	17.2612
0.595	17.4691
0.587	17.5384
0.579	17.2879
0.571	17.6436
0.563	17.2906
0.555	17.2402
0.547	16.9786
0.539	16.9831
0.531	17.0744
0.523	17.0629
0.515	16.5473
0.507	16.5205
0.499	16.4899
0.491	16.3331
0.483	16.1417
0.475	15.9645
0.467	15.6557
0.459	15.7254
0.451	15.4533
0.443	15.2799
0.435	15.005
0.427	14.9829
0.419	14.6939
0.411	14.5858
0.403	13.9852
