Name: Tourmaline (Elbaite) Na(Li,Al)3Al6(BO3)3Si6018(OH)4
Type: Mineral
Class: Silicates
Subclass: Cycloilicates (Ring Silicates)
Particle Size: Solid (prism crystal face)
Sample No.: tourmal.1
Owner: JHU
Wavelength Range: IR
Origin: Sao Jose De Brejuada, Minas Gerais, Brazil via the Smithsonian
Description: The sample was a purple, translucent, sudhedral crystal,
Measurement: Bidirectional reflectance
X Units: Wavelength (micrometers)
Y Units: Reflectance (percent)
wavelength	value
25.0442	18.7617
24.3388	19.7485
23.6719	20.8911
23.0407	20.5869
22.4422	22.6069
21.8741	22.79
21.334	23.7023
20.8199	25.9789
20.33	29.5021
19.8627	33.8236
19.4163	35.4933
18.9896	36.8468
18.5812	36.7787
18.19	35.1098
17.815	32.3444
17.4551	29.5729
17.1094	28.9189
16.7772	28.7372
16.4576	26.433
16.15	24.5092
15.8537	24.864
15.568	22.8154
15.2925	19.3227
15.0265	18.9897
14.7697	16.0937
14.5214	10.7676
14.2814	13.2173
14.0492	19.132
13.8244	20.9687
13.6067	14.3022
13.3957	12.2102
13.1912	14.509
12.9929	15.0883
12.8004	22.9443
12.6135	27.9863
12.432	26.1091
12.2557	21.1801
12.0843	20.3032
11.9176	20.1318
11.7555	19.6901
11.5977	19.083
11.444	19.375
11.2944	19.8608
11.1487	20.2529
11.0067	20.7751
10.8682	21.2924
10.7332	21.7131
10.6015	22.3903
10.473	23.4846
10.3476	25.2602
10.2251	26.8334
10.1056	27.5185
9.98873	27.0353
9.87458	26.8652
9.763	28.8254
9.65392	30.0238
9.54724	29.631
9.44291	32.726
9.34082	29.7419
9.24091	17.0356
9.14312	24.9343
9.04739	31.9198
8.95363	35.6283
8.8618	34.9118
8.77183	23.041
8.68368	12.1511
8.59727	14.2563
8.51257	15.9411
8.42951	17.0095
8.34807	18.1132
8.26819	19.3786
8.18981	20.8129
8.11292	21.926
8.03745	22.1254
7.96337	22.2128
7.89064	22.602
7.81924	23.4445
7.74911	25.6203
7.68023	26.8395
7.61256	26.5217
7.54608	24.6271
7.48074	23.7968
7.41653	26.3515
7.35341	27.1225
7.29136	24.7255
7.23034	23.4638
7.17033	20.8039
7.11132	16.155
7.05327	14.1447
6.99616	9.0146
6.93996	6.0703
6.88467	5.7507
6.83024	6.9414
6.77667	8.2959
6.72393	9.1123
6.67201	9.9961
6.62089	10.4936
6.57054	10.8225
6.52095	11.2773
6.4721	11.7663
6.42398	11.7661
6.37657	12.197
6.32986	12.5966
6.28382	12.7746
6.23845	12.9624
6.19373	13.0385
6.14965	13.2981
6.10619	13.447
6.06334	13.561
6.02109	13.5735
5.97942	13.758
5.93832	13.5024
5.89778	13.6591
5.8578	13.999
5.81835	14.0966
5.77943	14.0634
5.74103	14.2011
5.70314	14.373
5.66574	14.4699
5.62883	14.5603
5.5924	14.6201
5.55644	14.6086
5.52093	14.7097
5.48588	14.7561
5.45127	14.8921
5.41709	14.9633
5.38334	15.0014
5.35	14.9646
5.31708	15.1281
5.28456	15.2065
5.25243	15.2519
5.2207	15.2343
5.18934	15.3271
5.15836	15.3689
5.12775	15.4094
5.09749	15.4321
5.0676	15.446
5.03805	15.4455
5.00884	15.4699
4.97998	15.5
4.95144	15.5307
4.92322	15.5258
4.89533	15.5407
4.86775	15.5888
4.84048	15.6189
4.81351	15.6474
4.78684	15.656
4.76047	15.6938
4.73439	15.748
4.70859	15.7954
4.68306	15.8188
4.65782	15.8623
4.63284	15.8945
4.60814	15.9472
4.58369	15.9936
4.5595	16.0285
4.53557	16.0417
4.51188	16.0744
4.48845	16.092
4.46525	16.1333
4.44229	16.1377
4.41957	16.133
4.39708	16.1242
4.37481	16.1381
4.35277	16.0612
4.33096	15.8984
4.30935	15.7212
4.28797	15.6281
4.26679	15.5771
4.24583	15.4331
4.22506	15.5998
4.2045	16.0063
4.18414	16.2146
4.16398	16.2434
4.14401	16.2805
4.12423	16.309
4.10464	16.3371
4.08523	16.3593
4.066	16.3925
4.04696	16.4235
4.02809	16.4416
4.0094	16.4765
3.99088	16.4846
3.97253	16.5236
3.95435	16.5727
3.93634	16.5883
3.91848	16.5876
3.90079	16.6044
3.88326	16.633
3.86589	16.625
3.84867	16.6093
3.8316	16.6364
3.81468	16.6347
3.79791	16.642
3.78129	16.6377
3.76482	16.6342
3.74848	16.6423
3.73229	16.6355
3.71624	16.6496
3.70032	16.6442
3.68454	16.6667
3.6689	16.6789
3.65338	16.674
3.638	16.6987
3.62275	16.7326
3.60762	16.748
3.59262	16.7639
3.57775	16.7912
3.56299	16.822
3.54836	16.8444
3.53385	16.8732
3.51945	16.9057
3.50517	16.8952
3.49101	16.9167
3.47696	16.9384
3.46303	16.9614
3.4492	16.9472
3.43549	16.9567
3.42188	17.0048
3.40838	16.9843
3.39499	16.9577
3.38171	16.9692
3.36852	16.9467
3.35544	16.9399
3.34246	16.9104
3.32958	16.9206
3.3168	16.9172
3.30411	16.9174
3.29153	16.9362
3.27903	16.9277
3.26664	16.9213
3.25433	16.9306
3.24212	16.9252
3.23	16.9555
3.21797	16.9497
3.20603	16.9314
3.19418	16.9687
3.18241	16.9572
3.17074	16.946
3.15914	16.9697
3.14763	16.9985
3.13621	17.0131
3.12487	17.0424
3.11361	17.0161
3.10243	17.0275
3.09133	17.0075
3.0803	17.0371
3.06936	17.0161
3.0585	16.9882
3.04771	17.019
3.037	16.9875
3.02636	16.977
3.0158	16.936
3.00531	16.9389
2.99489	16.9692
2.98454	16.9267
2.97427	16.9355
2.96407	16.9182
2.95393	16.9223
2.94387	16.8715
2.93387	16.8916
2.92394	16.8325
2.91408	16.7749
2.90429	16.7846
2.89456	16.7749
2.88489	16.7343
2.87529	16.7871
2.86576	16.9287
2.85628	17.009
2.84687	17.1049
2.83752	16.9961
2.82823	16.8691
2.81901	16.9377
2.80984	16.9462
2.80073	17.2949
2.79168	16.9921
2.78269	17.0258
2.77376	17.2473
2.76488	17.1533
2.75606	16.809
2.7473	17.094
2.73859	17.4375
2.72994	17.1396
2.72134	16.7109
2.7128	16.9877
2.70431	17.144
2.69587	16.7336
2.68748	16.8837
2.67915	16.7724
2.67087	16.6904
2.66264	17.06
2.65446	17.08
2.64633	16.9748
2.63825	17.1672
2.63021	17.2309
2.62223	17.1005
2.6143	17.2053
2.60641	17.0961
2.59857	17.0986
2.59078	17.2482
2.58304	17.456
2.57534	17.4248
2.56768	17.4729
2.56008	17.6074
2.55251	17.4248
2.54499	17.3701
2.53752	17.4348
2.53009	17.5371
2.5227	17.5444
2.51536	17.58
2.50806	17.6396
2.5008	17.6506
2.49358	17.6855
2.4864	17.6928
2.47927	17.6897
2.47218	17.76
2.46512	17.8596
2.45811	17.8134
2.45114	17.8447
2.4442	17.8964
2.43731	17.9482
2.43045	17.9934
2.42363	17.996
2.41685	18.0822
2.41011	18.1064
2.40341	18.2153
2.39674	18.1962
2.39011	18.2744
2.38352	18.246
2.37696	18.3681
2.37044	18.3525
2.36395	18.4775
2.35751	18.5854
2.35109	18.54
2.34471	18.6503
2.33836	18.6972
2.33205	18.6811
2.32578	18.8032
2.31953	18.8901
2.31332	18.8608
2.30714	18.875
2.301	18.955
2.29489	18.998
2.28881	19.124
2.28276	19.1254
2.27675	19.2373
2.27076	19.2407
2.26481	19.2465
2.25889	19.3281
2.253	19.3872
2.24714	19.5029
2.24131	19.5122
2.23551	19.58
2.22974	19.5595
2.224	19.747
2.21829	19.6625
2.21261	19.8266
2.20696	19.7973
2.20134	19.8193
2.19574	19.979
2.19018	20.0751
2.18464	20.207
2.17913	20.1523
2.17365	20.1469
2.16819	20.229
2.16277	20.3832
2.15737	20.2485
2.15199	20.4208
2.14665	20.3872
2.14133	20.4892
2.13603	20.5527
2.13077	20.5761
2.12552	20.6508
2.12031	20.6738
2.11512	20.7875
2.10995	20.872
2.10481	20.7387
2.0997	20.9399
2.09461	20.9179
2.08954	20.9257
2.0845	21.0805
2.07948	21.0981
