Name: Argillaceous Limestone
Type: Rocks
Class: Sedimentary
Subclass: Limestone
Particle Size: 0 - 75 Micrometers
Sample No.: limestone.6
Owner: JHU
Wavelength Range: All
Origin: Sample No. 359,  The Hunt and Salisbury Collection at the U.S.
Description: A fine-grained sample with uniserial and some biserial
Measurement: Directional (10 Degree) Hemispherical Reflectance
X Units: Wavelength (micrometers)
Y Units: Reflectance (percent)
wavelength	value
14.983	9.0509
14.645	9.606
14.321	6.9378
14.011	1.9992
13.715	9.8726
13.43	10.921
13.158	10.13
12.896	6.0734
12.644	5.6511
12.402	5.5306
12.169	11.171
11.945	12.672
11.729	11.675
11.52	6.2522
11.319	2.641
11.125	9.1842
10.937	7.0775
10.756	7.3583
10.58	7.6591
10.41	6.9489
10.245	5.0347
10.086	3.6363
9.931	2.9633
9.781	2.6789
9.636	2.6438
9.495	2.8747
9.358	3.6678
9.225	4.2542
9.095	4.1213
8.969	3.921
8.847	3.9882
8.727	4.6563
8.612	4.8884
8.499	6.0047
8.389	8.3163
8.281	12.106
8.177	15.731
8.075	16.627
7.976	17.922
7.879	17.41
7.784	17.237
7.692	16.329
7.601	13.564
7.513	12.67
7.427	11.139
7.343	8.6284
7.261	5.6805
7.18	3.3895
7.102	2.8771
7.025	2.407
6.949	2.142
6.875	2.0444
6.803	2.0594
6.733	2.1285
6.663	2.3009
6.596	2.7025
6.529	3.2179
6.464	4.1365
6.4	4.7434
6.338	3.7059
6.276	3.1345
6.216	3.1956
6.157	3.3266
6.099	3.8255
6.042	4.6037
5.986	5.883
5.931	6.9958
5.878	8.4695
5.825	9.2458
5.773	9.4686
5.722	10.778
5.672	13.071
5.623	13.112
5.574	2.0854
5.527	12.26
5.48	21.949
5.434	26.644
5.389	27.31
5.345	26.654
5.301	29.228
5.258	33.357
5.215	38.134
5.174	39.889
5.133	40.528
5.093	39.011
5.053	40.81
5.014	41.013
4.975	42.849
4.937	45.363
4.9	48.082
4.863	50.412
4.827	51.348
4.791	51.803
4.756	51.413
4.721	48.111
4.687	39.973
4.654	40.729
4.62	47.805
4.588	49.894
4.556	50.393
4.524	50.485
4.492	51.014
4.461	52.742
4.431	54.382
4.401	55.436
4.371	55.986
4.342	55.388
4.313	55.369
4.284	55.07
4.256	55.053
4.229	55.303
4.201	55.029
4.174	54.218
4.147	52.806
4.121	50.327
4.095	47.29
4.069	42.836
4.044	33.742
4.019	20.98
3.994	8.7605
3.97	7.0124
3.945	13.248
3.921	18.639
3.898	20.189
3.875	21.005
3.852	21.933
3.829	26.892
3.806	36.636
3.784	47.459
3.762	50.042
3.74	50.659
3.719	51.044
3.698	50.835
3.677	50.332
3.656	49.492
3.636	48.474
3.615	47.249
3.595	45.326
3.575	41.623
3.556	40.02
3.536	34.814
3.517	22.795
3.498	17.109
3.479	13.841
3.461	20.237
3.442	21.9
3.424	21.615
3.406	21.19
3.388	20.534
3.371	19.918
3.353	17.413
3.336	27.43
3.319	32.842
3.302	33.778
3.285	34.006
3.269	34.006
3.252	33.909
3.236	33.606
3.22	33.099
3.204	32.482
3.188	31.789
3.173	31.088
3.157	30.199
3.142	29.682
3.127	29.256
3.112	28.491
3.097	28.142
3.082	27.96
3.067	27.694
3.053	27.428
3.039	27.267
3.025	27.153
3.011	27.125
2.997	27.253
2.983	27.47
2.969	27.64
2.956	27.763
2.942	28.043
2.929	28.285
2.916	28.588
2.903	28.932
2.89	29.341
2.877	29.794
2.864	30.274
2.852	30.734
2.839	31.113
2.827	31.3
2.814	31.106
2.802	30.241
2.79	28.035
2.778	24.487
2.766	21.465
2.755	20.835
2.743	23.149
2.731	27.851
2.72	36.078
2.708	44.957
2.697	52.924
2.686	63.04
2.675	66.625
2.664	68.352
2.653	70.535
2.642	71.412
2.632	70.97
2.621	71.238
2.61	71.59
2.6	71.486
2.59	71.307
2.579	71.421
2.569	71.115
2.559	69.678
2.549	66.497
2.539	63.679
2.529	64.63
2.519	66.692
2.509	67.527
2.5	67.884
2.49	68.279
2.481	69.093
2.471	70.244
2.462	71.387
2.452	72.058
2.443	72.606
2.434	73.135
2.425	73.746
2.416	74.24
2.407	74.568
2.398	74.723
2.389	74.942
2.38	74.873
2.372	74.615
2.363	73.642
2.354	71.934
2.346	70.544
2.337	70.498
2.329	71.502
2.321	72.565
2.312	73.151
2.304	73.475
2.296	73.926
2.288	74.484
2.28	75.057
2.272	75.522
2.264	75.891
2.256	76.076
2.248	76.248
2.24	76.356
2.233	76.247
2.225	75.981
2.217	75.769
2.21	75.572
2.202	75.825
2.195	76.157
2.187	76.534
2.18	76.896
2.173	77.161
2.166	77.354
2.158	77.417
2.151	77.523
2.144	77.663
2.137	77.757
2.13	77.763
2.123	77.768
2.116	77.766
2.109	77.772
2.102	77.865
2.095	77.876
2.089	77.986
2.082	78.028
2.06	77.678
2.028	77.136
1.996	74.953
1.964	73.684
1.932	72.164
1.9	74.551
1.868	74.9
1.836	76.609
1.804	76.786
1.772	76.215
1.74	76.087
1.708	75.733
1.676	75.695
1.644	75.428
1.612	74.849
1.58	75.34
1.548	75.063
1.516	74.254
1.484	73.39
1.452	73.079
1.42	72.037
1.388	72.131
1.356	71.765
1.324	71.7
1.292	71.434
1.26	70.592
1.228	70.592
1.196	69.788
1.164	68.376
1.132	68.149
1.1	67.292
1.068	66.734
1.036	65.596
1.004	64.489
0.972	63.307
0.94	62.466
0.908	61.482
0.876	60.731
0.844	60.156
0.812	59.629
0.795	58.867
0.787	58.298
0.779	58.111
0.771	57.578
0.763	57.188
0.755	56.608
0.747	56.609
0.739	56.022
0.731	55.502
0.723	54.712
0.715	54.337
0.707	54.043
0.699	54.722
0.691	53.174
0.683	52.824
0.675	52.122
0.667	51.863
0.659	51.159
0.651	50.69
0.643	50.253
0.635	49.648
0.627	49.082
0.619	48.606
0.611	47.768
0.603	47.227
0.595	46.871
0.587	46.219
0.579	45.792
0.571	45.065
0.563	44.051
0.555	42.525
0.547	42.221
0.539	41.826
0.531	41.189
0.523	40.027
0.515	39.002
0.507	38.512
0.499	37.726
0.491	36.901
0.483	36.113
0.475	35.292
0.467	34.647
0.459	34.021
0.451	33.076
0.443	32.369
0.435	31.523
0.427	30.876
0.419	30.082
0.411	29.366
0.403	28.237
