Name: Chabazite CaAl2Si4O12.6H2O
Type: Mineral
Class: Silicates
Subclass: Tectosilicates (Framework silicates) (Zeolite Group)
Particle Size: Coarse (74-250 Micrometers)
Sample No.: chabazite.1
Owner: JHU
Wavelength Range: IR
Origin: W. J. Ehmann #40; from Kyogle, N.S.W., Australia.
Description: The sample was a white crystalline mass.
Measurement: Transmission
X Units: Wavelength (micrometers)
Y Units: Transmittance (percent)
wavelength	value
25.044	4.4023
24.339	4.5298
23.672	4.0969
23.041	3.5901
22.442	3.6592
21.874	3.8208
21.334	3.9441
20.82	3.6279
20.33	3.1321
19.863	3.0564
19.416	3.2861
18.99	3.26
18.581	2.4138
18.19	2.2351
17.815	2.2717
17.455	2.3506
17.109	2.4619
16.777	2.5464
16.458	2.626
16.15	2.7966
15.854	2.7847
15.568	2.6787
15.292	2.3682
15.027	1.845
14.77	1.7161
14.521	1.7212
14.281	1.739
14.049	1.7261
13.824	1.7048
13.607	1.657
13.396	1.6143
13.191	1.6536
12.993	1.6504
12.8	1.6863
12.614	1.781
12.432	1.9529
12.256	2.1379
12.084	2.3074
11.918	2.4485
11.755	2.5874
11.598	2.6977
11.444	2.8108
11.294	2.937
11.149	3.0574
11.007	3.1079
10.868	3.1719
10.733	3.2253
10.602	3.2681
10.473	3.3364
10.348	3.4521
10.225	3.6409
10.106	3.9036
9.989	4.1538
9.875	4.416
9.763	4.7527
9.654	5.0754
9.547	5.2649
9.443	5.0032
9.341	4.3584
9.241	3.7671
9.143	3.4101
9.047	3.1853
8.954	3.0825
8.862	3.0539
8.772	3.0403
8.684	3.1062
8.597	3.1865
8.513	3.2832
8.43	3.2104
8.348	2.6724
8.268	1.5244
8.19	0.5369
8.113	0.2187
8.037	0.2466
7.963	0.3564
7.891	0.4907
7.819	0.627
7.749	0.7686
7.68	0.8835
7.613	1.0039
7.546	1.1086
7.481	1.2053
7.417	1.2939
7.353	1.3791
7.291	1.448
7.23	1.5068
7.17	1.5718
7.111	1.6287
7.053	1.6699
6.996	1.7158
6.94	1.7646
6.885	1.8018
6.83	1.8252
6.777	1.8603
6.724	1.885
6.672	1.9241
6.621	1.9531
6.571	1.9783
6.521	1.9927
6.472	1.991
6.424	1.9665
6.377	1.937
6.33	1.8914
6.284	1.8123
6.239	1.7068
6.194	1.5586
6.15	1.4023
6.106	1.248
6.063	1.1309
6.021	1.0684
5.979	1.0723
5.938	1.1758
5.898	1.3789
5.858	1.6616
5.818	1.9172
5.779	2.1655
5.741	2.3718
5.703	2.5439
5.666	2.6955
5.629	2.8235
5.592	2.9429
5.556	3.051
5.521	3.1626
5.486	3.2642
5.451	3.3782
5.417	3.457
5.383	3.5266
5.35	3.5657
5.317	3.6177
5.285	3.6633
5.252	3.7019
5.221	3.7471
5.189	3.7866
5.158	3.8264
5.128	3.8667
5.098	3.8982
5.068	3.9106
5.038	3.9087
5.009	3.8889
4.98	3.8672
4.951	3.8293
4.923	3.8005
4.895	3.7551
4.868	3.7344
4.84	3.6982
4.814	3.6785
4.787	3.6543
4.761	3.634
4.734	3.6084
4.709	3.5954
4.683	3.5962
4.658	3.5893
4.633	3.5898
4.608	3.6057
4.584	3.6267
4.559	3.6457
4.536	3.6872
4.512	3.7163
4.488	3.7668
4.465	3.814
4.442	3.875
4.42	3.9436
4.397	4.0198
4.375	4.0928
4.353	4.1855
4.331	4.2842
4.309	4.3816
4.288	4.489
4.267	4.605
4.246	4.7266
4.225	4.8486
4.205	4.9687
4.184	5.1003
4.164	5.2341
4.144	5.3559
4.124	5.4851
4.105	5.6145
4.085	5.7285
4.066	5.844
4.047	5.9592
4.028	6.0598
4.009	6.1404
3.991	6.2136
3.973	6.2746
3.954	6.3286
3.936	6.3652
3.918	6.3867
3.901	6.3857
3.883	6.3808
3.866	6.362
3.849	6.3235
3.832	6.2732
3.815	6.2068
3.798	6.1301
3.781	6.0527
3.765	5.9585
3.748	5.8608
3.732	5.7439
3.716	5.6304
3.7	5.5102
3.684	5.3782
3.669	5.2427
3.653	5.1084
3.638	4.9707
3.623	4.8288
3.608	4.6916
3.593	4.5466
3.578	4.4087
3.563	4.2629
3.548	4.1284
3.534	3.9912
3.519	3.8537
3.505	3.7156
3.491	3.5989
3.477	3.4795
3.463	3.3735
3.449	3.2571
3.436	3.1318
3.422	3.0139
3.408	2.9194
3.395	2.8276
3.382	2.7351
3.369	2.6572
3.355	2.5601
3.342	2.4861
3.33	2.4111
3.317	2.3274
3.304	2.2615
3.292	2.1907
3.279	2.1235
3.267	2.0684
3.254	1.9993
3.242	1.9507
3.23	1.8892
3.218	1.8435
3.206	1.7817
3.194	1.7446
3.182	1.6982
3.171	1.6575
3.159	1.6118
3.148	1.5706
3.136	1.522
3.125	1.491
3.114	1.4526
3.102	1.4268
3.091	1.3994
3.08	1.3645
3.069	1.3379
3.059	1.3245
3.048	1.2993
3.037	1.2954
3.026	1.2749
3.016	1.2615
3.005	1.251
2.995	1.2256
2.985	1.2036
2.974	1.1804
2.964	1.1655
2.954	1.1353
2.944	1.124
2.934	1.1052
2.924	1.0847
2.914	1.0779
2.904	1.064
2.895	1.0623
2.885	1.0649
2.875	1.0564
2.866	1.0435
2.856	1.031
2.847	1.0266
2.837	1.0193
2.828	1.0071
2.819	1.0127
2.81	1.0039
2.801	0.9936
2.792	0.9912
2.783	1.0034
2.774	1.021
2.765	1.0561
2.756	1.1284
2.747	1.2468
2.739	1.425
2.73	1.708
2.721	2.0308
2.713	2.3767
2.704	2.7134
2.696	3.0039
2.688	3.2671
2.679	3.5122
2.671	3.6929
2.663	3.9077
2.655	4.0561
2.646	4.2043
2.638	4.3108
2.63	4.3953
2.622	4.4993
2.614	4.5627
2.606	4.5981
2.599	4.6462
2.591	4.6743
2.583	4.689
2.575	4.7324
2.568	4.7385
2.56	4.7229
2.553	4.7451
2.545	4.7634
2.538	4.7908
2.53	4.8232
2.523	4.8584
2.515	4.8926
2.508	4.9568
2.501	5.0244
2.494	5.0947
2.486	5.1921
2.479	5.2949
2.472	5.3838
2.465	5.4846
2.458	5.5947
2.451	5.6745
2.444	5.7893
2.437	5.8845
2.43	6.0234
2.424	6.167
2.417	6.3254
2.41	6.5161
2.403	6.6814
2.397	6.8882
2.39	7.1052
2.384	7.3127
2.377	7.5337
2.37	7.74
2.364	7.9297
2.357	8.124
2.351	8.2981
2.345	8.4551
2.338	8.5815
2.332	8.7087
2.326	8.8518
2.32	8.9565
2.313	9.0876
2.307	9.1794
2.301	9.2671
2.295	9.3369
2.289	9.4138
2.283	9.4934
2.277	9.5302
2.271	9.5727
2.265	9.6001
2.259	9.6855
2.253	9.7177
2.247	9.6919
2.241	9.7322
2.236	9.7629
2.23	9.747
2.224	9.7319
2.218	9.761
2.213	9.7156
2.207	9.6997
2.201	9.678
2.196	9.7058
2.19	9.7009
2.185	9.6523
2.179	9.6118
2.174	9.6406
2.168	9.6301
2.163	9.5954
2.157	9.5622
2.152	9.5229
2.147	9.5027
2.141	9.4851
2.136	9.4345
2.131	9.4106
2.126	9.3584
2.12	9.322
2.115	9.3027
2.11	9.2387
2.105	9.2014
2.1	9.145
2.095	9.1169
2.09	9.0742
2.084	9.0198
2.079	8.9546
