Name: Olivine (Fo41) (Fe+2,Mg)2SiO4
Type: Mineral
Class: Silicates
Subclass: Nesosilicates (Isolated tetrahedra); (Olivine Group)
Particle Size: Fine  (0-60 micrometers)
Sample No.: olivine.4
Owner: JHU
Wavelength Range: IR
Origin: Kiglapait Intrusion, Labrador via Trude King #KI4143
Description: Initially, the specimen was contaminated with pyroxene,
Measurement: Bidirectional reflectance
X Units: Wavelength (micrometers)
Y Units: Reflectance (percent)
wavelength	value
25.0442	4.6289
24.3388	3.6794
23.6719	3.4011
23.0407	3.1684
22.4422	3.2771
21.8741	3.2881
21.334	3.7981
20.8199	4.5171
20.33	4.4807
19.8627	4.824
19.4163	5.6267
18.9896	6.2082
18.5812	5.8345
18.19	4.4412
17.815	3.104
17.4551	2.6533
17.1094	2.8325
16.7772	3.0769
16.4576	3.1992
16.15	2.9338
15.8537	2.2402
15.568	1.9954
15.2925	2.1106
15.0265	2.2756
14.7697	2.4121
14.5214	2.5156
14.2814	2.5862
14.0492	2.6921
13.8244	2.7129
13.6067	2.7693
13.3957	2.741
13.1912	2.7471
12.9929	2.7788
12.8004	2.8137
12.6135	2.9026
12.432	3.0161
12.2557	3.1921
12.0843	3.5952
11.9176	3.2161
11.7555	3.8147
11.5977	4.7742
11.444	5.9936
11.2944	6.7671
11.1487	7.1699
11.0067	7.5923
10.8682	7.862
10.7332	6.8159
10.6015	4.6692
10.473	5.8044
10.3476	6.1838
10.2251	5.3325
10.1056	4.8491
9.98873	4.1833
9.87458	3.8376
9.763	3.845
9.65392	4.029
9.54724	3.7915
9.44291	2.9582
9.34082	2.1145
9.24091	1.571
9.14312	1.499
9.04739	1.5896
8.95363	1.7007
8.8618	1.832
8.77183	1.9275
8.68368	2.0041
8.59727	2.0732
8.51257	2.1504
8.42951	2.2275
8.34807	2.312
8.26819	2.4006
8.18981	2.4849
8.11292	2.5435
8.03745	2.5774
7.96337	2.5832
7.89064	2.5937
7.81924	2.5986
7.74911	2.5835
7.68023	2.6035
7.61256	2.6426
7.54608	2.696
7.48074	2.7546
7.41653	2.7959
7.35341	2.8372
7.29136	2.8679
7.23034	2.8962
7.17033	2.9184
7.11132	2.9468
7.05327	2.9807
6.99616	2.9978
6.93996	3.0254
6.88467	3.0483
6.83024	3.0718
6.77667	3.0774
6.72393	3.0784
6.67201	3.0654
6.62089	3.0586
6.57054	3.0542
6.52095	3.0403
6.4721	3.0322
6.42398	3.0293
6.37657	3.0163
6.32986	2.9966
6.28382	2.9748
6.23845	2.948
6.19373	2.9089
6.14965	2.833
6.10619	2.7209
6.06334	2.616
6.02109	2.6155
5.97942	2.6396
5.93832	2.6414
5.89778	2.6553
5.8578	2.6699
5.81835	2.6709
5.77943	2.615
5.74103	2.5559
5.70314	2.5146
5.66574	2.5359
5.62883	2.5701
5.5924	2.6086
5.55644	2.6196
5.52093	2.6445
5.48588	2.6697
5.45127	2.6948
5.41709	2.7234
5.38334	2.7327
5.35	2.7529
5.31708	2.7722
5.28456	2.8
5.25243	2.8386
5.2207	2.8706
5.18934	2.8899
5.15836	2.9087
5.12775	2.9182
5.09749	2.9351
5.0676	2.9473
5.03805	3.0002
5.00884	3.0513
4.97998	3.102
4.95144	3.1409
4.92322	3.1814
4.89533	3.217
4.86775	3.2375
4.84048	3.2666
4.81351	3.2856
4.78684	3.3061
4.76047	3.3332
4.73439	3.354
4.70859	3.3791
4.68306	3.3972
4.65782	3.4285
4.63284	3.4575
4.60814	3.4863
4.58369	3.5176
4.5595	3.5486
4.53557	3.5705
4.51188	3.595
4.48845	3.6287
4.46525	3.6623
4.44229	3.6926
4.41957	3.7246
4.39708	3.7651
4.37481	3.7961
4.35277	3.8252
4.33096	3.8613
4.30935	3.8975
4.28797	3.9319
4.26679	3.9573
4.24583	3.9951
4.22506	4.0161
4.2045	4.0549
4.18414	4.084
4.16398	4.1172
4.14401	4.1472
4.12423	4.1797
4.10464	4.208
4.08523	4.2466
4.066	4.2776
4.04696	4.3118
4.02809	4.3481
4.0094	4.3918
3.99088	4.415
3.97253	4.4482
3.95435	4.4912
3.93634	4.5276
3.91848	4.5683
3.90079	4.6011
3.88326	4.6333
3.86589	4.6611
3.84867	4.6785
3.8316	4.7234
3.81468	4.7561
3.79791	4.7912
3.78129	4.8198
3.76482	4.8603
3.74848	4.887
3.73229	4.9136
3.71624	4.9328
3.70032	4.9714
3.68454	4.989
3.6689	5.0227
3.65338	5.0444
3.638	5.0771
3.62275	5.1023
3.60762	5.1306
3.59262	5.155
3.57775	5.165
3.56299	5.1902
3.54836	5.2014
3.53385	5.2239
3.51945	5.2283
3.50517	5.208
3.49101	5.2549
3.47696	5.2666
3.46303	5.2783
3.4492	5.2737
3.43549	5.2776
3.42188	5.2549
3.40838	5.2771
3.39499	5.3235
3.38171	5.3266
3.36852	5.3472
3.35544	5.3777
3.34246	5.3933
3.32958	5.4006
3.3168	5.407
3.30411	5.4075
3.29153	5.4131
3.27903	5.3933
3.26664	5.3952
3.25433	5.3872
3.24212	5.3755
3.23	5.3574
3.21797	5.3391
3.20603	5.3325
3.19418	5.3108
3.18241	5.2847
3.17074	5.2793
3.15914	5.2556
3.14763	5.2256
3.13621	5.207
3.12487	5.2034
3.11361	5.1875
3.10243	5.176
3.09133	5.1648
3.0803	5.1555
3.06936	5.1443
3.0585	5.147
3.04771	5.1411
3.037	5.134
3.02636	5.1152
3.0158	5.1033
3.00531	5.0815
2.99489	5.083
2.98454	5.0679
2.97427	5.0549
2.96407	5.0395
2.95393	5.0349
2.94387	5.0229
2.93387	5.0261
2.92394	5.0268
2.91408	5.029
2.90429	5.0347
2.89456	5.0505
2.88489	5.0361
2.87529	5.0488
2.86576	5.0459
2.85628	5.05
2.84687	5.0427
2.83752	5.0034
2.82823	4.9858
2.81901	4.9529
2.80984	4.926
2.80073	4.9087
2.79168	4.904
2.78269	4.9148
2.77376	4.8882
2.76488	4.8852
2.75606	4.8894
2.7473	4.8979
2.73859	4.9385
2.72994	4.9614
2.72134	5.1086
2.7128	5.3323
2.70431	5.8472
2.69587	6.1599
2.68748	6.2739
2.67915	6.3237
2.67087	6.3735
2.66264	6.3779
2.65446	6.374
2.64633	6.3635
2.63825	6.3735
2.63021	6.3806
2.62223	6.3725
2.6143	6.3586
2.60641	6.3681
2.59857	6.3684
2.59078	6.3413
2.58304	6.353
2.57534	6.3415
2.56768	6.3249
2.56008	6.3091
2.55251	6.3039
2.54499	6.2822
2.53752	6.31
2.53009	6.289
2.5227	6.2834
2.51536	6.2497
2.50806	6.2612
2.5008	6.2336
2.49358	6.2478
2.4864	6.2407
2.47927	6.2641
2.47218	6.2422
2.46512	6.2417
2.45811	6.2366
2.45114	6.2117
2.4442	6.2165
2.43731	6.2087
2.43045	6.2117
2.42363	6.1929
2.41685	6.1836
2.41011	6.2031
2.40341	6.1987
2.39674	6.1662
2.39011	6.1643
2.38352	6.1555
2.37696	6.1592
2.37044	6.1404
2.36395	6.1584
2.35751	6.1496
2.35109	6.1452
2.34471	6.1355
2.33836	6.1055
2.33205	6.124
2.32578	6.1094
2.31953	6.1177
2.31332	6.1426
2.30714	6.1286
2.301	6.1069
2.29489	6.1101
2.28881	6.1172
2.28276	6.091
2.27675	6.1479
2.27076	6.1365
2.26481	6.1548
2.25889	6.1155
2.253	6.1343
2.24714	6.1365
2.24131	6.1484
2.23551	6.1728
2.22974	6.1274
2.224	6.112
2.21829	6.136
2.21261	6.1401
2.20696	6.1264
2.20134	6.1118
2.19574	6.1135
2.19018	6.1406
2.18464	6.1504
2.17913	6.1365
2.17365	6.1391
2.16819	6.1284
2.16277	6.1479
2.15737	6.1555
2.15199	6.1362
2.14665	6.155
2.14133	6.1597
2.13603	6.164
2.13077	6.1767
2.12552	6.1699
2.12031	6.1606
2.11512	6.1758
2.10995	6.1609
2.10481	6.206
2.0997	6.1782
2.09461	6.2143
2.08954	6.2051
2.0845	6.2112
2.07948	6.2256
