Name: Orthoclase KAlSi3O8
Type: Mineral
Class: Silicates
Subclass: Tectosilicates (Framework Silicates); (Feldspar Group)
Particle Size: Solid (parallel to 001)
Sample No.: orthocl.3
Owner: JHU
Wavelength Range: IR
Origin: Harris Farm Mica Mine, near Oliver, Goochland Co., Virginia
Description: The hand sample is a single 11.97 g fragment of a single
Measurement: Bidirectional reflectance
X Units: Wavelength (micrometers)
Y Units: Reflectance (percent)
wavelength	value
25.0442	31.3359
24.3388	35.8026
23.6719	41.704
23.0407	46.264
22.4422	45.5453
21.8741	32.2714
21.334	22.7231
20.8199	19.3222
20.33	16.4726
19.8627	18.3876
19.4163	19.7219
18.9896	21.5732
18.5812	25.9623
18.19	23.6186
17.815	21.9162
17.4551	23.8149
17.1094	27.1767
16.7772	32.163
16.4576	34.3642
16.15	27.704
15.8537	18.8645
15.568	19.1135
15.2925	17.9389
15.0265	16.6648
14.7697	17.7148
14.5214	18.6389
14.2814	19.6838
14.0492	20.4819
13.8244	20.7998
13.6067	20.3376
13.3957	19.8637
13.1912	19.2348
12.9929	19.1325
12.8004	18.5766
12.6135	17.5585
12.432	17.5283
12.2557	18.2836
12.0843	19.0698
11.9176	19.6933
11.7555	20.2646
11.5977	20.7753
11.444	21.3095
11.2944	21.8784
11.1487	22.5458
11.0067	23.2585
10.8682	24.0165
10.7332	25.0517
10.6015	26.3395
10.473	28.3735
10.3476	31.5736
10.2251	33.6232
10.1056	36.3776
9.98873	41.2167
9.87458	45.8524
9.763	46.9423
9.65392	48.8839
9.54724	51.7396
9.44291	54.4305
9.34082	44.4171
9.24091	41.7025
9.14312	42.0741
9.04739	41.4022
8.95363	42.3842
8.8618	48.2811
8.77183	51.7909
8.68368	55.5533
8.59727	56.0982
8.51257	55.6764
8.42951	55.8309
8.34807	54.745
8.26819	49.3485
8.18981	40.8888
8.11292	31.0466
8.03745	20.7602
7.96337	11.0403
7.89064	4.2046
7.81924	3.5229
7.74911	4.7851
7.68023	5.9795
7.61256	6.916
7.54608	7.6362
7.48074	8.2226
7.41653	8.7453
7.35341	9.1719
7.29136	9.5232
7.23034	9.8528
7.17033	10.1528
7.11132	10.4448
7.05327	10.6467
6.99616	10.8515
6.93996	11.0114
6.88467	11.1692
6.83024	11.3164
6.77667	11.4001
6.72393	11.4829
6.67201	11.5849
6.62089	11.7155
6.57054	11.7475
6.52095	11.9223
6.4721	11.9853
6.42398	12.0014
6.37657	12.1382
6.32986	12.25
6.28382	12.3278
6.23845	12.3799
6.19373	12.4091
6.14965	12.4736
6.10619	12.4726
6.06334	12.5539
6.02109	12.5879
5.97942	12.54
5.93832	12.3899
5.89778	12.395
5.8578	12.4658
5.81835	12.3486
5.77943	12.6172
5.74103	12.8027
5.70314	12.7876
5.66574	12.7512
5.62883	12.7256
5.5924	12.7341
5.55644	12.7314
5.52093	12.7605
5.48588	12.7761
5.45127	12.7939
5.41709	12.7741
5.38334	12.8171
5.35	12.7998
5.31708	12.8427
5.28456	12.8423
5.25243	12.8462
5.2207	12.8581
5.18934	12.8696
5.15836	12.8918
5.12775	12.9057
5.09749	12.9001
5.0676	12.9048
5.03805	12.9189
5.00884	12.9179
4.97998	12.8903
4.95144	12.9021
4.92322	12.8896
4.89533	12.9069
4.86775	12.9121
4.84048	12.8977
4.81351	12.8979
4.78684	12.9048
4.76047	12.8991
4.73439	12.9004
4.70859	12.9011
4.68306	12.9013
4.65782	12.9074
4.63284	12.9013
4.60814	12.9052
4.58369	12.9248
4.5595	12.9121
4.53557	12.9016
4.51188	12.8962
4.48845	12.894
4.46525	12.8984
4.44229	12.8945
4.41957	12.8686
4.39708	12.893
4.37481	12.8867
4.35277	12.8808
4.33096	12.8894
4.30935	12.894
4.28797	12.8845
4.26679	12.8903
4.24583	12.9033
4.22506	12.8867
4.2045	12.8911
4.18414	12.8884
4.16398	12.9074
4.14401	12.9018
4.12423	12.8972
4.10464	12.8925
4.08523	12.9106
4.066	12.8872
4.04696	12.8908
4.02809	12.8806
4.0094	12.8769
3.99088	12.8838
3.97253	12.8598
3.95435	12.8579
3.93634	12.8525
3.91848	12.854
3.90079	12.8559
3.88326	12.8554
3.86589	12.8366
3.84867	12.8418
3.8316	12.8408
3.81468	12.8432
3.79791	12.8344
3.78129	12.8261
3.76482	12.8291
3.74848	12.8237
3.73229	12.8291
3.71624	12.8076
3.70032	12.7871
3.68454	12.7705
3.6689	12.7539
3.65338	12.7573
3.638	12.7331
3.62275	12.7265
3.60762	12.7099
3.59262	12.705
3.57775	12.7055
3.56299	12.6894
3.54836	12.6655
3.53385	12.6616
3.51945	12.6953
3.50517	12.8003
3.49101	12.7475
3.47696	12.727
3.46303	12.726
3.4492	12.7465
3.43549	12.8203
3.42188	12.9177
3.40838	12.8369
3.39499	12.737
3.38171	12.7468
3.36852	12.7819
3.35544	12.6682
3.34246	12.6206
3.32958	12.5674
3.3168	12.5263
3.30411	12.5132
3.29153	12.4826
3.27903	12.4648
3.26664	12.4343
3.25433	12.4094
3.24212	12.4062
3.23	12.3913
3.21797	12.3606
3.20603	12.343
3.19418	12.3203
3.18241	12.3247
3.17074	12.2959
3.15914	12.2895
3.14763	12.2502
3.13621	12.2285
3.12487	12.227
3.11361	12.1819
3.10243	12.1865
3.09133	12.1616
3.0803	12.1428
3.06936	12.1035
3.0585	12.0844
3.04771	12.0722
3.037	12.042
3.02636	12.0285
3.0158	11.9912
3.00531	11.966
2.99489	11.9716
2.98454	11.956
2.97427	11.9189
2.96407	11.886
2.95393	11.8613
2.94387	11.8335
2.93387	11.8164
2.92394	11.7939
2.91408	11.7119
2.90429	11.7192
2.89456	11.7141
2.88489	11.6494
2.87529	11.6338
2.86576	11.6147
2.85628	11.5979
2.84687	11.5664
2.83752	11.5676
2.82823	11.5219
2.81901	11.4934
2.80984	11.5119
2.80073	11.4502
2.79168	11.4365
2.78269	11.4153
2.77376	11.4199
2.76488	11.4013
2.75606	11.3225
2.7473	11.3755
2.73859	11.2929
2.72994	11.3261
2.72134	11.2798
2.7128	11.3193
2.70431	11.2885
2.69587	11.2636
2.68748	11.3008
2.67915	11.2309
2.67087	11.1533
2.66264	11.2383
2.65446	11.2402
2.64633	11.1958
2.63825	11.1938
2.63021	11.0918
2.62223	11.1386
2.6143	11.123
2.60641	11.0771
2.59857	11.1059
2.59078	11.0996
2.58304	11.0254
2.57534	11.0537
2.56768	11.0254
2.56008	11.0239
2.55251	10.9931
2.54499	11.0127
2.53752	11.0434
2.53009	11.0351
2.5227	11.042
2.51536	11.0293
2.50806	11.0376
2.5008	11.0097
2.49358	11.0117
2.4864	10.9785
2.47927	11.0254
2.47218	11.0156
2.46512	10.9463
2.45811	11.0078
2.45114	11.0512
2.4442	10.9726
2.43731	10.9848
2.43045	10.9795
2.42363	11.0063
2.41685	10.9941
2.41011	11.0356
2.40341	11.0063
2.39674	11.0083
2.39011	11.0024
2.38352	10.9829
2.37696	11.0468
2.37044	11.084
2.36395	11.0356
2.35751	10.9966
2.35109	11.0586
2.34471	11.0498
2.33836	11.081
2.33205	11.1064
2.32578	11.0976
2.31953	11.123
2.31332	11.0761
2.30714	11.1269
2.301	11.1347
2.29489	11.1308
2.28881	11.1543
2.28276	11.1621
2.27675	11.1914
2.27076	11.1855
2.26481	11.2109
2.25889	11.2656
2.253	11.2148
2.24714	11.2217
2.24131	11.2275
2.23551	11.3379
2.22974	11.2793
2.224	11.3261
2.21829	11.3652
2.21261	11.2627
2.20696	11.3066
2.20134	11.3437
2.19574	11.3105
2.19018	11.3134
2.18464	11.333
2.17913	11.3105
2.17365	11.3593
2.16819	11.3047
2.16277	11.3525
2.15737	11.4023
2.15199	11.3672
2.14665	11.3457
2.14133	11.3593
2.13603	11.3252
2.13077	11.3252
2.12552	11.3564
2.12031	11.3906
2.11512	11.3379
2.10995	11.3828
2.10481	11.3994
2.0997	11.334
2.09461	11.372
2.08954	11.3515
2.0845	11.4023
2.07948	11.3593
