Name: Illite/smectite (K,H3O)(Al,Mg,Fe)2(Si,Al)4 O10 [(OH)2,H2O]
Type: Mineral
Class: Silicates
Subclass: Phyllosilicates (Sheet Silicates) (Mica Group)
Particle Size: Fine  (Less than 2  Micrometer)
Owner: JHU
Wavelength Range: IR
Origin: Cameron, Arizona; from Hunt and Salisbury Collection #31
Description: The sample was a light tan, earthy clay. Called
Measurement: Transmission
X Units: Wavelength (micrometers)
Y Units: Transmittance (percent)
wavelength	value
25.044	68.2186
24.339	58.9413
23.672	48.953
23.041	51.5878
22.442	50.8358
21.874	42.8593
21.334	34.121
20.82	42.5507
20.33	51.9784
19.863	48.7928
19.416	42.0116
18.99	40.6366
18.581	45.0165
18.19	50.8007
17.815	55.5204
17.455	61.036
17.109	66.6346
16.777	71.6678
16.458	75.4764
16.15	78.0467
15.854	79.9998
15.568	82.2283
15.292	83.1795
15.027	83.1629
14.77	83.3133
14.521	83.2469
14.281	83.6668
14.049	85.0623
13.824	85.8513
13.607	86.1604
13.396	85.3303
13.191	84.826
12.993	84.4475
12.8	82.3811
12.614	82.9729
12.432	81.3421
12.256	82.7889
12.084	82.7029
11.918	82.7854
11.755	82.0642
11.598	78.2459
11.444	74.1468
11.294	72.6722
11.149	70.3494
11.007	64.8856
10.868	62.8226
10.733	62.5824
10.602	62.0897
10.473	59.1932
10.348	52.1942
10.225	41.9647
10.106	32.0531
9.989	24.9589
9.875	21.0014
9.763	19.311
9.654	19.4926
9.547	22.309
9.443	27.0766
9.341	32.9609
9.241	37.9306
9.143	40.3358
9.047	41.6522
8.954	44.6893
8.862	49.4188
8.772	54.5555
8.684	59.5301
8.597	63.4618
8.513	67.0711
8.43	71.6209
8.348	76.0713
8.268	79.824
8.19	82.7615
8.113	84.7715
8.037	86.2949
7.963	87.3887
7.891	88.2937
7.819	89.0037
7.749	89.7127
7.68	90.2998
7.613	90.822
7.546	91.3731
7.481	91.8984
7.417	92.2019
7.353	92.6111
7.291	92.9971
7.23	93.2891
7.17	93.2344
7.111	93.5017
7.053	93.8884
6.996	94.0222
6.94	94.1809
6.885	94.3897
6.83	94.5713
6.777	94.6826
6.724	94.8689
6.672	95.0625
6.621	95.1873
6.571	95.4343
6.521	95.4766
6.472	95.5862
6.424	95.6296
6.377	95.4822
6.33	95.2422
6.284	94.9678
6.238	94.5352
6.194	93.5593
6.15	92.5452
6.106	92.8731
6.063	93.5994
6.021	94.1941
5.979	94.7976
5.938	95.4785
5.898	95.8789
5.858	96.1047
5.818	96.3464
5.779	96.4355
5.741	96.6709
5.703	96.7568
5.666	96.7737
5.629	96.8757
5.592	96.8269
5.556	96.906
5.521	96.8711
5.486	96.9109
5.451	97.0312
5.417	97.123
5.383	97.0867
5.35	97.2344
5.317	97.3535
5.285	97.4727
5.252	97.6199
5.221	97.7393
5.189	97.8347
5.158	97.9695
5.128	98.0671
5.097	98.1728
5.068	98.2205
5.038	98.2776
5.009	98.3772
4.98	98.4924
4.951	98.5603
4.923	98.5871
4.895	98.6677
4.868	98.6799
4.84	98.7732
4.814	98.7903
4.787	98.8513
4.76	98.8601
4.734	98.9221
4.709	98.9119
4.683	98.9675
4.658	99.0212
4.633	99.092
4.608	99.1033
4.584	99.2043
4.56	99.2361
4.536	99.26
4.512	99.2873
4.488	99.364
4.465	99.4158
4.442	99.4294
4.42	99.5178
4.397	99.594
4.375	99.7038
4.353	99.7214
4.331	99.7302
4.309	99.7756
4.288	99.8108
4.267	99.865
4.246	99.9763
4.225	100.008
4.205	99.9626
4.184	100.033
4.164	100.114
4.144	100.115
4.124	100.178
4.105	100.223
4.085	100.254
4.066	100.29
4.047	100.276
4.028	100.358
4.009	100.356
3.991	100.346
3.973	100.453
3.954	100.559
3.936	100.549
3.918	100.643
3.901	100.649
3.883	100.624
3.866	100.653
3.849	100.746
3.832	100.729
3.815	100.776
3.798	100.855
3.781	100.887
3.765	100.834
3.748	100.901
3.732	100.895
3.716	100.887
3.7	100.861
3.685	100.903
3.669	100.932
3.653	100.943
3.638	100.926
3.623	100.944
3.608	100.904
3.593	100.974
3.578	100.928
3.563	100.924
3.548	100.965
3.534	100.983
3.519	101.127
3.505	101.435
3.491	101.312
3.477	101.19
3.463	101.106
3.449	101.262
3.435	101.379
3.422	101.817
3.408	101.428
3.395	101.088
3.382	100.948
3.369	100.71
3.355	100.469
3.342	100.338
3.33	100.242
3.317	100.14
3.304	100.042
3.292	99.9495
3.279	99.8962
3.267	99.7859
3.254	99.6052
3.242	99.5163
3.23	99.3484
3.218	99.0935
3.206	98.9304
3.194	98.6619
3.182	98.4861
3.171	98.2664
3.159	98.0124
3.148	97.7351
3.136	97.4656
3.125	97.2859
3.114	97.0232
3.102	96.6814
3.091	96.5066
3.08	96.3416
3.069	96.3132
3.058	96.0759
3.048	95.9119
3.037	95.4939
3.026	95.2712
3.016	94.8923
3.005	94.5603
2.995	94.2781
2.985	94.1609
2.974	93.8728
2.964	93.4841
2.954	93.4109
2.944	93.3757
2.934	93.2185
2.924	93.2039
2.914	93.2742
2.904	93.4617
2.895	93.6091
2.885	93.8552
2.875	94.0671
2.866	94.2146
2.856	94.4822
2.847	94.7498
2.838	94.907
2.828	94.7039
2.819	94.1013
2.81	93.0857
2.801	91.7498
2.792	90.1677
2.783	88.5955
2.774	87.2976
2.765	86.4021
2.756	86.4217
2.747	87.8523
2.739	90.1716
2.73	92.8484
2.721	95.7224
2.713	98.1287
2.704	99.4148
2.696	100.981
2.687	102.34
2.679	102.734
2.671	103.091
2.663	103.243
2.654	103.313
2.646	103.355
2.638	103.49
2.63	103.449
2.622	103.552
2.614	103.679
2.606	103.754
2.599	103.873
2.591	104.168
2.583	104.219
2.575	104.037
2.568	104.132
2.56	104.285
2.553	104.191
2.545	104.267
2.538	104.386
2.53	104.299
2.523	104.238
2.515	104.511
2.508	104.55
2.501	104.588
2.494	104.603
2.486	104.683
2.479	104.869
2.472	104.814
2.465	104.91
2.458	104.97
2.451	105.058
2.444	104.924
2.437	105.211
2.43	105.181
2.424	105.129
2.417	105.179
2.41	105.445
2.403	105.422
2.397	105.486
2.39	105.496
2.384	105.697
2.377	105.791
2.37	105.939
2.364	105.955
2.358	105.699
2.351	105.969
2.345	106.047
2.338	106.252
2.332	106.16
2.326	106.26
2.32	106.439
2.313	106.502
2.307	106.484
2.301	106.392
2.295	106.752
2.289	106.836
2.283	106.75
2.277	106.939
2.271	107.168
2.265	107.007
2.259	107.027
2.253	107.379
2.247	107.156
2.241	107.281
2.236	107.566
2.23	107.285
2.224	107.207
2.218	107.687
2.213	107.578
2.207	107.816
2.201	107.969
2.196	107.84
2.19	108.332
2.185	108.332
2.179	108.402
2.174	108.586
2.168	108.5
2.163	108.734
2.157	108.449
2.152	109.136
2.147	108.902
2.141	108.719
2.136	108.89
2.131	109.3
2.126	108.937
2.12	109.265
2.115	109.445
2.11	109.359
2.105	109.531
2.1	109.89
2.095	109.851
2.09	110.14
2.085	110.254
2.079	109.539
