Name: Spessartine Mn3Al2 (SiO4)3
Type: Mineral
Class: Silicates
Subclass: Nesosilicates (Framework silicates); GarnetGroup
Particle Size: Solid (dodecahedral crystal face)
Sample No.: spessart.2
Owner: JHU
Wavelength Range: IR
Origin: Rutherford #2 mine, Amelia, Amelia Co., Virginia, USA via the
Description: The sample consisted of a group of 3 mm and smaller
Measurement: Bidirectional reflectance
X Units: Wavelength (micrometers)
Y Units: Reflectance (percent)
wavelength	value
25.0442	19.0468
24.3388	22.871
23.6719	27.5663
23.0407	36.498
22.4422	56.4461
21.8741	43.6259
21.334	62.9998
20.8199	69.4842
20.33	69.4256
19.8627	66.1414
19.4163	50.2601
18.9896	38.6366
18.5812	17.633
18.19	17.4094
17.815	36.1222
17.4551	51.3324
17.1094	51.1561
16.7772	40.3546
16.4576	14.5227
16.15	7.7024
15.8537	13.4065
15.568	7.5337
15.2925	9.0293
15.0265	10.9345
14.7697	12.1894
14.5214	13.2932
14.2814	14.1748
14.0492	15.019
13.8244	15.7451
13.6067	16.5539
13.3957	17.2912
13.1912	17.977
12.9929	18.5656
12.8004	19.427
12.6135	20.3837
12.432	21.5129
12.2557	22.6982
12.0843	24.4079
11.9176	26.839
11.7555	30.7758
11.5977	38.7511
11.444	49.0868
11.2944	39.5209
11.1487	52.9154
11.0067	54.4418
10.8682	40.308
10.7332	17.7026
10.6015	23.4916
10.473	44.8373
10.3476	63.2547
10.2251	65.639
10.1056	64.7611
9.98873	63.0745
9.87458	60.7704
9.763	57.1312
9.65392	52.329
9.54724	46.4379
9.44291	35.8388
9.34082	21.2143
9.24091	5.9687
9.14312	1.7769
9.04739	3.4839
8.95363	5.0305
8.8618	6.1528
8.77183	7.018
8.68368	7.7534
8.59727	8.3454
8.51257	8.8281
8.42951	9.2615
8.34807	9.6863
8.26819	10.0459
8.18981	10.3679
8.11292	10.664
8.03745	10.9355
7.96337	11.1931
7.89064	11.427
7.81924	11.6806
7.74911	11.8742
7.68023	12.0644
7.61256	12.2275
7.54608	12.4013
7.48074	12.5278
7.41653	12.6831
7.35341	12.8195
7.29136	12.9255
7.23034	13.0639
7.17033	13.1289
7.11132	13.2685
7.05327	13.2856
6.99616	13.4589
6.93996	13.5986
6.88467	13.6943
6.83024	13.7646
6.77667	13.854
6.72393	13.8964
6.67201	14.0678
6.62089	14.1574
6.57054	14.163
6.52095	14.2954
6.4721	14.4658
6.42398	14.4553
6.37657	14.5962
6.32986	14.7815
6.28382	14.8266
6.23845	14.8947
6.19373	14.926
6.14965	15.0337
6.10619	15.0449
6.06334	15.0832
6.02109	15.0603
5.97942	15.1045
5.93832	14.9712
5.89778	15.0456
5.8578	15.1718
5.81835	15.1547
5.77943	15.1831
5.74103	15.2421
5.70314	15.2929
5.66574	15.333
5.62883	15.3579
5.5924	15.3779
5.55644	15.3991
5.52093	15.4419
5.48588	15.4963
5.45127	15.5866
5.41709	15.6157
5.38334	15.6757
5.35	15.6616
5.31708	15.7524
5.28456	15.7858
5.25243	15.7981
5.2207	15.7968
5.18934	15.8476
5.15836	15.8554
5.12775	15.8759
5.09749	15.8886
5.0676	15.8964
5.03805	15.9116
5.00884	15.9416
4.97998	15.955
4.95144	15.9748
4.92322	15.9936
4.89533	16.0297
4.86775	16.0478
4.84048	16.0808
4.81351	16.102
4.78684	16.1098
4.76047	16.1665
4.73439	16.1919
4.70859	16.2231
4.68306	16.2304
4.65782	16.2663
4.63284	16.3071
4.60814	16.3252
4.58369	16.351
4.5595	16.375
4.53557	16.3916
4.51188	16.4179
4.48845	16.416
4.46525	16.4477
4.44229	16.445
4.41957	16.458
4.39708	16.4545
4.37481	16.4577
4.35277	16.4135
4.33096	16.312
4.30935	16.1945
4.28797	16.104
4.26679	16.0634
4.24583	16.0239
4.22506	16.0859
4.2045	16.3322
4.18414	16.5117
4.16398	16.5244
4.14401	16.5429
4.12423	16.5527
4.10464	16.5727
4.08523	16.5878
4.066	16.6137
4.04696	16.6098
4.02809	16.6225
4.0094	16.6572
3.99088	16.6523
3.97253	16.6992
3.95435	16.708
3.93634	16.7211
3.91848	16.7131
3.90079	16.7226
3.88326	16.7392
3.86589	16.7343
3.84867	16.7177
3.8316	16.738
3.81468	16.7251
3.79791	16.7324
3.78129	16.7207
3.76482	16.6923
3.74848	16.6987
3.73229	16.6933
3.71624	16.6933
3.70032	16.7031
3.68454	16.705
3.6689	16.708
3.65338	16.7158
3.638	16.7187
3.62275	16.7368
3.60762	16.7375
3.59262	16.7473
3.57775	16.7673
3.56299	16.7758
3.54836	16.7724
3.53385	16.7966
3.51945	16.8347
3.50517	16.8723
3.49101	16.8469
3.47696	16.843
3.46303	16.8503
3.4492	16.8542
3.43549	16.8767
3.42188	16.9536
3.40838	16.8999
3.39499	16.8325
3.38171	16.8391
3.36852	16.8169
3.35544	16.7854
3.34246	16.7561
3.32958	16.7348
3.3168	16.7397
3.30411	16.707
3.29153	16.7407
3.27903	16.7385
3.26664	16.729
3.25433	16.7287
3.24212	16.7216
3.23	16.7426
3.21797	16.7436
3.20603	16.7211
3.19418	16.7304
3.18241	16.7285
3.17074	16.7294
3.15914	16.7387
3.14763	16.7697
3.13621	16.7529
3.12487	16.7544
3.11361	16.7492
3.10243	16.7514
3.09133	16.7265
3.0803	16.7221
3.06936	16.7238
3.0585	16.6679
3.04771	16.6867
3.037	16.6662
3.02636	16.644
3.0158	16.6145
3.00531	16.6259
2.99489	16.6281
2.98454	16.5507
2.97427	16.561
2.96407	16.5351
2.95393	16.5605
2.94387	16.5107
2.93387	16.5156
2.92394	16.4719
2.91408	16.4445
2.90429	16.4482
2.89456	16.4201
2.88489	16.4165
2.87529	16.3847
2.86576	16.4077
2.85628	16.3295
2.84687	16.2749
2.83752	16.2778
2.82823	16.2226
2.81901	16.2568
2.80984	16.186
2.80073	16.2207
2.79168	16.0996
2.78269	16.1142
2.77376	16.0571
2.76488	16.0512
2.75606	15.997
2.7473	15.9599
2.73859	16.1035
2.72994	15.9121
2.72134	15.9043
2.7128	15.811
2.70431	15.8281
2.69587	15.7465
2.68748	15.7426
2.67915	15.6767
2.67087	15.7158
2.66264	15.6445
2.65446	15.7016
2.64633	15.7075
2.63825	15.6914
2.63021	15.8828
2.62223	15.6504
2.6143	15.6523
2.60641	15.708
2.59857	15.5459
2.59078	15.5898
2.58304	15.6455
2.57534	15.6084
2.56768	15.5761
2.56008	15.6504
2.55251	15.5805
2.54499	15.5078
2.53752	15.5107
2.53009	15.4843
2.5227	15.4795
2.51536	15.4746
2.50806	15.4511
2.5008	15.4345
2.49358	15.4257
2.4864	15.436
2.47927	15.354
2.47218	15.3774
2.46512	15.4062
2.45811	15.3515
2.45114	15.2832
2.4442	15.3144
2.43731	15.2954
2.43045	15.3071
2.42363	15.248
2.41685	15.2758
2.41011	15.2597
2.40341	15.2588
2.39674	15.2197
2.39011	15.2002
2.38352	15.1777
2.37696	15.2314
2.37044	15.1464
2.36395	15.2431
2.35751	15.1865
2.35109	15.1347
2.34471	15.1494
2.33836	15.1308
2.33205	15.0937
2.32578	15.1357
2.31953	15.1494
2.31332	15.0742
2.30714	15.0517
2.301	15.0644
2.29489	15.0254
2.28881	15.0576
2.28276	15.0371
2.27675	15.0439
2.27076	15.0146
2.26481	14.9931
2.25889	15.0136
2.253	14.9941
2.24714	15.0595
2.24131	14.9941
2.23551	14.9648
2.22974	14.9463
2.224	15.0429
2.21829	14.8984
2.21261	15.0156
2.20696	14.9882
2.20134	14.9121
2.19574	15.0039
2.19018	15.0078
2.18464	15.0713
2.17913	15.0009
2.17365	14.9511
2.16819	15
2.16277	15.04
2.15737	14.915
2.15199	14.997
2.14665	14.9648
2.14133	15.0097
2.13603	14.9824
2.13077	15.0478
2.12552	15
2.12031	15.0439
2.11512	15.0009
2.10995	15.0234
2.10481	14.9775
2.0997	15.0673
2.09461	15.0273
2.08954	15.0048
2.0845	15.0556
2.07948	15.0791
