Name: Beryl Be3Al2Si6O18
Type: Mineral
Class: Silicates
Subclass: Cyclosilicates (Ring Silicates)
Particle Size: Fine  (less than 75 Micrometers)
Sample No.: beryl.2
Owner: JHU
Wavelength Range: IR
Origin: Smithsonian NMNH 134700Sample from Palermo Mine, North
Description: Hand sample was pale green to white in color and
Measurement: Bidirectional reflectance
X Units: Wavelength (micrometers)
Y Units: Reflectance (percent)
wavelength	value
25.0442	1.0552
24.3388	0.926
23.6719	0.979
23.0407	1.2441
22.4422	1.376
21.8741	1.4756
21.334	1.2944
20.8199	1.0789
20.33	1.2371
19.8627	0.6602
19.4163	0.9614
18.9896	1.1086
18.5812	1.0459
18.19	0.9248
17.815	0.4727
17.4551	0.4229
17.1094	0.5024
16.7772	0.8193
16.4576	0.6728
16.15	0.4944
15.8537	0.6267
15.568	0.6169
15.2925	0.5151
15.0265	0.6079
14.7697	0.7617
14.5214	0.8472
14.2814	0.6326
14.0492	0.4687
13.8244	0.5103
13.6067	0.6323
13.3957	0.7092
13.1912	0.7004
12.9929	0.4736
12.8004	0.4148
12.6135	0.498
12.432	0.5525
12.2557	0.5876
12.0843	0.4802
11.9176	0.408
11.7555	0.4399
11.5977	0.5791
11.444	0.6458
11.2944	0.6885
11.1487	0.6855
11.0067	0.738
10.8682	0.8237
10.7332	0.9709
10.6015	1.113
10.473	1.3325
10.3476	1.395
10.2251	1.26
10.1056	0.9995
9.98873	0.7119
9.87458	0.7366
9.763	0.7595
9.65392	0.6838
9.54724	0.5852
9.44291	0.5522
9.34082	0.6401
9.24091	0.7344
9.14312	0.8389
9.04739	0.9099
8.95363	0.8896
8.8618	0.7825
8.77183	0.6511
8.68368	0.5749
8.59727	0.5913
8.51257	0.6306
8.42951	0.6956
8.34807	0.9509
8.26819	1.094
8.18981	1.1731
8.11292	1.228
8.03745	1.2808
7.96337	1.3528
7.89064	1.4724
7.81924	1.8342
7.74911	1.7725
7.68023	1.3049
7.61256	0.843
7.54608	0.5178
7.48074	0.3467
7.41653	0.2893
7.35341	0.2864
7.29136	0.333
7.23034	0.407
7.17033	0.4934
7.11132	0.5911
7.05327	0.6772
6.99616	0.7886
6.93996	0.8743
6.88467	0.9514
6.83024	1.0615
6.77667	1.2366
6.72393	1.4338
6.67201	1.6018
6.62089	1.8081
6.57054	2.0193
6.52095	1.9065
6.4721	1.2949
6.42398	1.6702
6.37657	2.0115
6.32986	2.1807
6.28382	2.0373
6.23845	1.5027
6.19373	1.9216
6.14965	0.9346
6.10619	0.9988
6.06334	1.9648
6.02109	2.2842
5.97942	2.8335
5.93832	2.9934
5.89778	2.9553
5.8578	2.8767
5.81835	2.7839
5.77943	2.8581
5.74103	2.9453
5.70314	3.0342
5.66574	3.0691
5.62883	3.0366
5.5924	3.0295
5.55644	3.1301
5.52093	3.1565
5.48588	3.2593
5.45127	3.4726
5.41709	3.634
5.38334	3.7358
5.35	3.7038
5.31708	3.6081
5.28456	3.3872
5.25243	3.0344
5.2207	2.6428
5.18934	2.4077
5.15836	2.3682
5.12775	2.4465
5.09749	2.6916
5.0676	3.0339
5.03805	3.3445
5.00884	3.624
4.97998	3.9409
4.95144	4.2231
4.92322	4.488
4.89533	4.7893
4.86775	5.1138
4.84048	5.3911
4.81351	5.6382
4.78684	5.9971
4.76047	6.3096
4.73439	6.5298
4.70859	6.6865
4.68306	6.7749
4.65782	6.8681
4.63284	7.0076
4.60814	7.1579
4.58369	7.2834
4.5595	7.3916
4.53557	7.4868
4.51188	7.5679
4.48845	7.6098
4.46525	7.6731
4.44229	7.8064
4.41957	7.9834
4.39708	8.1513
4.37481	8.2905
4.35277	8.3764
4.33096	8.4241
4.30935	8.4792
4.28797	8.518
4.26679	8.5268
4.24583	8.3117
4.22506	8.6379
4.2045	8.7925
4.18414	9.0769
4.16398	9.1455
4.14401	9.1653
4.12423	9.1853
4.10464	9.1955
4.08523	9.2029
4.066	9.2341
4.04696	9.2771
4.02809	9.3125
4.0094	9.3481
3.99088	9.3655
3.97253	9.3921
3.95435	9.4111
3.93634	9.4365
3.91848	9.4551
3.90079	9.4773
3.88326	9.4856
3.86589	9.4988
3.84867	9.51
3.8316	9.5183
3.81468	9.5161
3.79791	9.519
3.78129	9.5241
3.76482	9.5324
3.74848	9.5249
3.73229	9.5234
3.71624	9.5049
3.70032	9.5149
3.68454	9.4985
3.6689	9.4807
3.65338	9.4822
3.638	9.4707
3.62275	9.4785
3.60762	9.4863
3.59262	9.4836
3.57775	9.4795
3.56299	9.4643
3.54836	9.458
3.53385	9.4414
3.51945	9.4116
3.50517	9.3308
3.49101	9.3371
3.47696	9.3327
3.46303	9.3115
3.4492	9.2798
3.43549	9.2153
3.42188	9.1177
3.40838	9.1006
3.39499	9.1418
3.38171	9.1411
3.36852	9.1262
3.35544	9.1496
3.34246	9.1609
3.32958	9.1369
3.3168	9.1194
3.30411	9.0969
3.29153	9.0703
3.27903	9.0622
3.26664	9.053
3.25433	9.0349
3.24212	9.0249
3.23	8.966
3.21797	8.8664
3.20603	8.8476
3.19418	8.8652
3.18241	8.8345
3.17074	8.7712
3.15914	8.708
3.14763	8.7195
3.13621	8.6662
3.12487	8.5857
3.11361	8.407
3.10243	8.0102
3.09133	7.6184
3.0803	7.9184
3.06936	8.2512
3.0585	8.291
3.04771	8.2707
3.037	8.2261
3.02636	8.1745
3.0158	8.0964
3.00531	8.042
2.99489	7.9721
2.98454	7.9099
2.97427	7.8603
2.96407	7.8091
2.95393	7.7358
2.94387	7.6479
2.93387	7.5366
2.92394	7.4153
2.91408	7.2742
2.90429	7.0784
2.89456	6.8833
2.88489	6.646
2.87529	6.3474
2.86576	6.0669
2.85628	5.8064
2.84687	5.4758
2.83752	5.2837
2.82823	5.1523
2.81901	4.7031
2.80984	4.28
2.80073	3.8306
2.79168	2.8765
2.78269	1.4138
2.77376	2.0874
2.76488	3.5068
2.75606	3.2671
2.7473	2.7197
2.73859	2.1638
2.72994	2.0513
2.72134	2.1814
2.7128	2.0134
2.70431	1.1604
2.69587	2.1226
2.68748	3.1118
2.67915	3.5588
2.67087	3.8994
2.66264	4.2866
2.65446	4.6306
2.64633	4.9956
2.63825	5.2783
2.63021	5.4299
2.62223	5.5608
2.6143	5.5715
2.60641	5.5347
2.59857	5.5754
2.59078	5.6445
2.58304	5.7319
2.57534	5.8801
2.56768	6.051
2.56008	6.2927
2.55251	6.7016
2.54499	7.1675
2.53752	7.5342
2.53009	7.6965
2.5227	7.7734
2.51536	7.8523
2.50806	7.9934
2.5008	8.2134
2.49358	8.4485
2.4864	8.6972
2.47927	8.8813
2.47218	9.0373
2.46512	9.1479
2.45811	9.2739
2.45114	9.3774
2.4442	9.4458
2.43731	9.5271
2.43045	9.5932
2.42363	9.6552
2.41685	9.6894
2.41011	9.7099
2.40341	9.7632
2.39674	9.7593
2.39011	9.78
2.38352	9.7607
2.37696	9.8169
2.37044	9.8235
2.36395	9.8281
2.35751	9.8364
2.35109	9.8808
2.34471	9.8852
2.33836	9.8584
2.33205	9.8908
2.32578	9.9162
2.31953	9.9526
2.31332	9.9988
2.30714	9.9988
2.301	10.0332
2.29489	10.0312
2.28881	10.062
2.28276	10.0771
2.27675	10.1142
2.27076	10.0923
2.26481	10.1284
2.25889	10.1364
2.253	10.1445
2.24714	10.1562
2.24131	10.1596
2.23551	10.1499
2.22974	10.1423
2.224	10.1733
2.21829	10.1992
2.21261	10.1909
2.20696	10.1772
2.20134	10.1902
2.19574	10.2007
2.19018	10.2092
2.18464	10.228
2.17913	10.2243
2.17365	10.249
2.16819	10.249
2.16277	10.2304
2.15737	10.2431
2.15199	10.1972
2.14665	10.2334
2.14133	10.2876
2.13603	10.3083
2.13077	10.3598
2.12552	10.3552
2.12031	10.3481
2.11512	10.351
2.10995	10.3403
2.10481	10.3725
2.0997	10.3952
2.09461	10.4289
2.08954	10.4314
2.0845	10.4092
2.07948	10.4228
