Name: Alunite (sodium alunite) NaAl3(SO4)2(OH)6
Type: Mineral
Class: Sulfates
Particle Size: 0-15 micrometers. (Packed powder simulates coarse.)
Sample No.: alunite.4
Owner: JHU
Wavelength Range: IR
Origin: Synthetic; Synthesized by Roger Stoffregen and supplied by
Description: The sample was a white, microcrystalline powder
Measurement: Bidirectional Reflectance
X Units: Wavelength (micrometers)
Y Units: Reflectance (percent)
wavelength	value
25.044	9.7392
24.339	10.6504
23.672	11.1887
23.041	11.884
22.442	12.1064
21.874	8.1118
21.334	9.2495
20.82	10.2378
20.33	10.1843
19.863	11.0713
19.416	12.0984
18.99	11.3467
18.581	10.7197
18.19	10.8352
17.815	11.925
17.455	12.9621
17.109	14.8691
16.777	18.8022
16.458	20.7966
16.15	14.2873
15.854	20.9218
15.568	21.6625
15.292	18.176
15.027	14.0134
14.77	13.176
14.521	14.5817
14.281	16.1059
14.049	17.7744
13.824	19.2302
13.607	18.2983
13.396	13.0263
13.191	6.8357
12.993	3.2004
12.8	2.896
12.614	3.4202
12.432	3.8994
12.256	4.3225
12.084	4.6833
11.918	5.0544
11.755	5.364
11.598	5.668
11.444	5.9119
11.294	6.1225
11.149	6.2944
11.007	6.5049
10.868	6.7156
10.733	6.9306
10.602	7.1543
10.473	7.4199
10.348	7.6706
10.225	7.9504
10.106	8.1948
9.989	8.4504
9.875	8.7483
9.763	9.49
9.654	8.4595
9.547	9.417
9.443	10.2051
9.341	11.3188
9.241	13.396
9.143	16.1804
9.047	18.3933
8.954	20.2502
8.862	21.392
8.772	21.1845
8.684	19.6606
8.597	16.6086
8.513	15.5188
8.43	11.5454
8.348	9.5906
8.268	8.9084
8.19	9.0842
8.113	10.3244
8.037	11.8437
7.963	12.0937
7.891	9.9797
7.819	6.3679
7.749	3.4404
7.68	2.1577
7.613	2.0149
7.546	2.2195
7.481	2.4766
7.417	2.7432
7.353	2.9873
7.291	3.1894
7.23	3.3706
7.17	3.5366
7.111	3.6868
7.053	3.8518
6.996	3.9485
6.94	4.0205
6.885	4.1294
6.83	4.262
6.777	4.3723
6.724	4.4021
6.672	4.3931
6.621	4.3625
6.571	4.395
6.521	4.5058
6.472	4.6499
6.424	4.7734
6.377	4.885
6.33	4.9304
6.284	4.9377
6.238	4.9512
6.194	4.904
6.15	4.8281
6.106	4.7766
6.063	4.7783
6.021	4.7893
5.979	4.8379
5.938	4.9084
5.898	5.0622
5.858	5.3293
5.818	5.5569
5.779	5.7707
5.741	5.9634
5.703	6.1111
5.666	6.25
5.629	6.3804
5.592	6.5124
5.556	6.6035
5.521	6.6992
5.486	6.8025
5.451	6.9682
5.417	7.1587
5.383	7.3113
5.35	7.4494
5.317	7.5681
5.285	7.6767
5.252	7.7602
5.221	7.8384
5.189	7.9233
5.158	7.9968
5.128	8.0608
5.097	8.1296
5.068	8.1865
5.038	8.2451
5.009	8.2868
4.98	8.3166
4.951	8.3408
4.923	8.3318
4.895	8.2739
4.868	8.1833
4.84	8.1172
4.814	7.6824
4.787	7.9302
4.76	7.728
4.734	6.9558
4.709	6.4692
4.683	5.7793
4.658	5.6665
4.633	5.7781
4.608	5.4324
4.584	5.4944
4.56	5.396
4.536	5.3039
4.512	5.2703
4.488	5.3025
4.465	5.3323
4.442	5.4409
4.42	5.5544
4.397	5.5632
4.375	5.7226
4.353	5.8013
4.331	5.6213
4.309	5.7329
4.288	5.9221
4.267	6.2817
4.246	6.5495
4.225	6.803
4.205	7.0039
4.184	7.0742
4.164	7.0791
4.144	7.0918
4.124	7.0771
4.105	7.0779
4.085	7.0808
4.066	7.0735
4.047	7.071
4.028	7.0476
4.009	7.0593
3.991	7.0635
3.973	7.0847
3.954	7.1103
3.936	7.1347
3.918	7.1701
3.901	7.0796
3.883	7.2317
3.866	7.2832
3.849	7.2976
3.832	7.3044
3.815	7.3083
3.798	7.323
3.781	7.3056
3.765	7.2778
3.748	7.2268
3.732	7.1965
3.716	7.1401
3.7	7.0752
3.685	6.9953
3.669	6.9094
3.653	6.8205
3.638	6.7312
3.623	6.6404
3.608	6.5437
3.593	6.4453
3.578	6.3401
3.563	6.2532
3.548	6.1533
3.534	6.0659
3.519	5.9783
3.505	5.8784
3.491	5.8159
3.477	5.728
3.463	5.645
3.449	5.5715
3.435	5.5017
3.422	5.4309
3.408	5.3596
3.395	5.2893
3.382	5.2309
3.369	5.1794
3.355	5.1228
3.342	5.0495
3.33	5.0159
3.317	4.9751
3.304	4.9282
3.292	4.8931
3.279	4.8498
3.267	4.8135
3.254	4.7886
3.242	4.7673
3.23	4.7461
3.218	4.7251
3.206	4.7097
3.194	4.6843
3.182	4.6767
3.171	4.615
3.159	4.552
3.148	4.5598
3.136	4.4585
3.125	4.3464
3.114	4.396
3.102	4.428
3.091	4.4289
3.08	4.4575
3.069	4.5115
3.058	4.469
3.048	4.4309
3.037	4.3816
3.026	4.3557
3.016	4.1384
3.005	4.0166
2.995	3.9639
2.985	3.8679
2.974	3.7427
2.964	3.7519
2.954	3.8638
2.944	3.8071
2.934	3.831
2.924	3.9619
2.914	4.1106
2.904	5.0442
2.895	7.6814
2.885	6.7817
2.875	2.7297
2.866	3.323
2.856	2.5737
2.847	1.6184
2.838	1.7588
2.828	2.0093
2.819	2.3352
2.81	2.6763
2.801	2.8345
2.792	3.1999
2.783	3.7961
2.774	4.324
2.765	4.8586
2.756	5.7568
2.747	6.667
2.739	7.5263
2.73	8.5488
2.721	9.3066
2.713	9.906
2.704	10.6604
2.696	11.6484
2.687	12.1801
2.679	12.4282
2.671	13.7636
2.663	14.4824
2.654	14.5241
2.646	14.7885
2.638	14.9055
2.63	14.7385
2.622	14.531
2.614	14.4223
2.606	13.6704
2.599	12.9714
2.591	13.3066
2.583	13.4546
2.575	13.1748
2.568	13.1709
2.56	13.2568
2.553	13.2485
2.545	13.0888
2.538	12.1723
2.53	11.1186
2.523	11.2622
2.515	12.5732
2.508	12.8208
2.501	12.7544
2.494	13.1972
2.486	13.0581
2.479	13.0486
2.472	13.3598
2.465	13.4326
2.458	13.2046
2.451	12.6699
2.444	12.7749
2.437	13.438
2.43	14.4824
2.424	15.2929
2.417	15.4365
2.41	15.3637
2.403	15.4211
2.397	15.4619
2.39	15.8862
2.384	16.7783
2.377	17.6347
2.37	18.1435
2.364	18.4313
2.358	18.4487
2.351	18.3859
2.345	17.935
2.338	17.4956
2.332	17.0168
2.326	16.7426
2.32	16.9838
2.313	17.9316
2.307	18.8303
2.301	19.2978
2.295	19.5988
2.289	19.7309
2.283	19.8574
2.277	19.9426
2.271	20.0397
2.265	20.0976
2.259	20.0725
2.253	20.0605
2.247	19.9804
2.241	19.7426
2.236	18.8042
2.23	18.4841
2.224	17.4946
2.218	16.5285
2.213	17.6564
2.207	18.1015
2.201	17.2597
2.196	16.9751
2.19	16.0031
2.185	15.9699
2.179	15.633
2.174	15.375
2.168	15.4494
2.163	15.6108
2.157	15.7714
2.152	16.1757
2.147	16.6709
2.141	17.1054
2.136	17.6621
2.131	18.1772
2.126	18.4931
2.12	18.7492
2.115	18.8408
2.11	18.915
2.105	18.9104
2.1	19.0061
2.095	19.1066
2.09	19.1337
2.085	19.2324
2.079	19.2504
