Name: Olivine (Fo51) (Fe+2,Mg)2SiO4
Type: Mineral
Class: Silicates
Subclass: Nesosilicates (Isolated tetrahedra); (Olivine Group)
Particle Size: Fine  (0-60 Micrometers)
Sample No.: olivine.5
Owner: JHU
Wavelength Range: IR
Origin: Kiglapait Intrusion, Labrador via Trude King #KI3188
Description: Initially, the specimen was contaminated with pyroxene,
Measurement: Bidirectional reflectance
X Units: Wavelength (micrometers)
Y Units: Reflectance (percent)
wavelength	value
25.0442	3.043
24.3388	2.7339
23.6719	1.9858
23.0407	1.5906
22.4422	1.7812
21.8741	1.6851
21.334	1.9155
20.8199	2.208
20.33	2.312
19.8627	2.2873
19.4163	2.6741
18.9896	2.9333
18.5812	3.0059
18.19	2.6787
17.815	1.9311
17.4551	1.5745
17.1094	1.6475
16.7772	1.832
16.4576	2.0403
16.15	2.1709
15.8537	1.8716
15.568	1.6726
15.2925	1.7397
15.0265	1.9138
14.7697	2.1028
14.5214	2.2261
14.2814	2.3547
14.0492	2.4756
13.8244	2.5183
13.6067	2.5825
13.3957	2.573
13.1912	2.5361
12.9929	2.4419
12.8004	2.3354
12.6135	2.1584
12.432	2.0227
12.2557	1.8479
12.0843	1.7659
11.9176	1.6035
11.7555	1.8442
11.5977	2.1272
11.444	2.5491
11.2944	2.8362
11.1487	3.0002
11.0067	3.219
10.8682	3.4739
10.7332	3.5483
10.6015	2.645
10.473	2.5251
10.3476	3.083
10.2251	3.0051
10.1056	2.9766
9.98873	2.9243
9.87458	2.9038
9.763	3.0144
9.65392	3.2703
9.54724	3.4514
9.44291	3.1767
9.34082	2.5749
9.24091	2.0781
9.14312	1.9582
9.04739	2.0784
8.95363	2.269
8.8618	2.6987
8.77183	2.9543
8.68368	3.1269
8.59727	3.2617
8.51257	3.4536
8.42951	3.6059
8.34807	3.7566
8.26819	3.9226
8.18981	4.0779
8.11292	4.1689
8.03745	4.208
7.96337	4.1875
7.89064	4.1755
7.81924	4.1699
7.74911	4.1257
7.68023	4.0876
7.61256	4.1086
7.54608	4.1936
7.48074	4.2722
7.41653	4.3611
7.35341	4.4087
7.29136	4.447
7.23034	4.4829
7.17033	4.5044
7.11132	4.5439
7.05327	4.6018
6.99616	4.6155
6.93996	4.6262
6.88467	4.6494
6.83024	4.6965
6.77667	4.7532
6.72393	4.759
6.67201	4.7536
6.62089	4.7378
6.57054	4.7351
6.52095	4.6897
6.4721	4.6621
6.42398	4.6333
6.37657	4.5698
6.32986	4.5303
6.28382	4.4902
6.23845	4.4446
6.19373	4.3799
6.14965	4.2595
6.10619	4.0434
6.06334	3.7778
6.02109	3.7263
5.97942	3.8044
5.93832	3.8354
5.89778	3.8435
5.8578	3.8743
5.81835	3.9001
5.77943	3.8076
5.74103	3.6177
5.70314	3.4661
5.66574	3.458
5.62883	3.5674
5.5924	3.6582
5.55644	3.6902
5.52093	3.7187
5.48588	3.7663
5.45127	3.8518
5.41709	3.9307
5.38334	3.9761
5.35	4.0137
5.31708	4.0478
5.28456	4.1047
5.25243	4.1868
5.2207	4.2556
5.18934	4.3113
5.15836	4.3523
5.12775	4.3779
5.09749	4.3953
5.0676	4.4153
5.03805	4.4646
5.00884	4.5554
4.97998	4.6589
4.95144	4.7771
4.92322	4.8642
4.89533	4.928
4.86775	4.9765
4.84048	5.0224
4.81351	5.0632
4.78684	5.0986
4.76047	5.1357
4.73439	5.1623
4.70859	5.197
4.68306	5.227
4.65782	5.261
4.63284	5.3074
4.60814	5.3423
4.58369	5.3943
4.5595	5.427
4.53557	5.4631
4.51188	5.4956
4.48845	5.5417
4.46525	5.5813
4.44229	5.625
4.41957	5.6704
4.39708	5.7077
4.37481	5.7473
4.35277	5.7881
4.33096	5.8301
4.30935	5.8703
4.28797	5.9199
4.26679	5.9626
4.24583	6.0076
4.22506	6.0398
4.2045	6.0849
4.18414	6.1203
4.16398	6.1487
4.14401	6.1909
4.12423	6.2275
4.10464	6.2698
4.08523	6.3017
4.066	6.3325
4.04696	6.3628
4.02809	6.4021
4.0094	6.4353
3.99088	6.4673
3.97253	6.5027
3.95435	6.5288
3.93634	6.5679
3.91848	6.6081
3.90079	6.6452
3.88326	6.6694
3.86589	6.6938
3.84867	6.7283
3.8316	6.7436
3.81468	6.7749
3.79791	6.7993
3.78129	6.8354
3.76482	6.8596
3.74848	6.883
3.73229	6.9116
3.71624	6.9272
3.70032	6.9409
3.68454	6.9663
3.6689	6.9834
3.65338	7.0073
3.638	7.0361
3.62275	7.05
3.60762	7.0586
3.59262	7.0752
3.57775	7.0879
3.56299	7.0664
3.54836	7.0881
3.53385	7.0671
3.51945	7.0012
3.50517	6.7727
3.49101	6.8913
3.47696	6.9453
3.46303	6.9587
3.4492	6.8891
3.43549	6.7707
3.42188	6.5273
3.40838	6.6582
3.39499	6.8738
3.38171	6.8808
3.36852	6.9763
3.35544	7.0989
3.34246	7.1269
3.32958	7.145
3.3168	7.146
3.30411	7.1548
3.29153	7.1492
3.27903	7.1531
3.26664	7.1304
3.25433	7.1123
3.24212	7.1108
3.23	7.0815
3.21797	7.0652
3.20603	7.0449
3.19418	7.0271
3.18241	6.987
3.17074	6.9717
3.15914	6.9529
3.14763	6.917
3.13621	6.9057
3.12487	6.8613
3.11361	6.8459
3.10243	6.811
3.09133	6.7912
3.0803	6.7685
3.06936	6.7392
3.0585	6.7192
3.04771	6.7156
3.037	6.6889
3.02636	6.6514
3.0158	6.6323
3.00531	6.5962
2.99489	6.5715
2.98454	6.5517
2.97427	6.5266
2.96407	6.5132
2.95393	6.4739
2.94387	6.4563
2.93387	6.4448
2.92394	6.437
2.91408	6.416
2.90429	6.3923
2.89456	6.3699
2.88489	6.3579
2.87529	6.3308
2.86576	6.3186
2.85628	6.3025
2.84687	6.2749
2.83752	6.2468
2.82823	6.217
2.81901	6.2121
2.80984	6.196
2.80073	6.1958
2.79168	6.1767
2.78269	6.2075
2.77376	6.1841
2.76488	6.1714
2.75606	6.1963
2.7473	6.1943
2.73859	6.2441
2.72994	6.2329
2.72134	6.3818
2.7128	6.5886
2.70431	7.0696
2.69587	7.3857
2.68748	7.4966
2.67915	7.5532
2.67087	7.6138
2.66264	7.5827
2.65446	7.5478
2.64633	7.5329
2.63825	7.5163
2.63021	7.5603
2.62223	7.499
2.6143	7.4966
2.60641	7.5205
2.59857	7.5141
2.59078	7.4731
2.58304	7.5166
2.57534	7.4641
2.56768	7.4319
2.56008	7.445
2.55251	7.4082
2.54499	7.3865
2.53752	7.4006
2.53009	7.3728
2.5227	7.3677
2.51536	7.3447
2.50806	7.3354
2.5008	7.3186
2.49358	7.3098
2.4864	7.2991
2.47927	7.3169
2.47218	7.2837
2.46512	7.3088
2.45811	7.2895
2.45114	7.2729
2.4442	7.261
2.43731	7.2524
2.43045	7.2322
2.42363	7.2229
2.41685	7.2156
2.41011	7.2422
2.40341	7.2104
2.39674	7.2192
2.39011	7.1806
2.38352	7.1772
2.37696	7.1645
2.37044	7.145
2.36395	7.1474
2.35751	7.1352
2.35109	7.1355
2.34471	7.1284
2.33836	7.1294
2.33205	7.102
2.32578	7.1301
2.31953	7.0964
2.31332	7.1406
2.30714	7.112
2.301	7.1113
2.29489	7.143
2.28881	7.1221
2.28276	7.0947
2.27675	7.1101
2.27076	7.1128
2.26481	7.1172
2.25889	7.1037
2.253	7.1152
2.24714	7.1067
2.24131	7.1264
2.23551	7.1296
2.22974	7.105
2.224	7.1206
2.21829	7.1218
2.21261	7.1164
2.20696	7.1223
2.20134	7.1079
2.19574	7.1079
2.19018	7.1116
2.18464	7.145
2.17913	7.1245
2.17365	7.1228
2.16819	7.1269
2.16277	7.1333
2.15737	7.1543
2.15199	7.126
2.14665	7.1409
2.14133	7.1499
2.13603	7.1521
2.13077	7.1667
2.12552	7.1362
2.12031	7.1387
2.11512	7.1555
2.10995	7.1304
2.10481	7.1699
2.0997	7.1699
2.09461	7.1653
2.08954	7.2441
2.0845	7.2077
2.07948	7.2026
