Name: Hornblende Ca2(Fe+2,Mg)4Al(Si7Al)O22(OH,F)2
Type: Mineral
Class: Silicates
Subclass: Inosilicates (Amphibole Group)
Particle Size: solid (cleavage face)
Sample No.: hornblen.3
Owner: JHU
Wavelength Range: IR
Origin: Calumet Island, Ottowa River, Canada via the Smithsaonian
Description: Sample was a cluster of several large, deep green
Measurement: Bidirectional reflectance
X Units: Wavelength (micrometers)
Y Units: Reflectance (percent)
wavelength	value
25.044	24.26
24.339	24.146
23.672	26.377
23.041	30.28
22.442	37.956
21.874	40.432
21.334	37.08
20.82	40.296
20.33	41.266
19.863	46.114
19.416	49.3
18.99	53.411
18.581	51.313
18.19	44.539
17.815	47.216
17.455	41.628
17.109	26.846
16.777	13.103
16.458	11.576
16.15	12.683
15.854	13.795
15.568	14.995
15.292	16.096
15.027	16.299
14.77	18.185
14.521	19.84
14.281	13.896
14.049	11.518
13.824	12.468
13.607	12.388
13.396	14.036
13.191	19.769
12.993	16.93
12.8	14.837
12.614	14.95
12.432	15.178
12.256	15.459
12.084	15.816
11.918	16.201
11.755	16.569
11.598	17.085
11.444	17.782
11.294	18.617
11.149	19.812
11.007	21.793
10.868	22.81
10.733	19.157
10.602	25.728
10.473	35.674
10.348	39.996
10.225	43.755
10.106	48.389
9.9887	47.825
9.8746	43.398
9.763	31.482
9.6539	33.908
9.5472	30.524
9.4429	32.985
9.3408	35.567
9.2409	37.221
9.1431	36.822
9.0474	37.523
8.9536	40.23
8.8618	40.367
8.7718	39.42
8.6837	34.26
8.5973	26.215
8.5126	20.67
8.4295	16.847
8.3481	12.409
8.2682	7.8659
8.1898	5.0144
8.1129	5.3577
8.0374	6.1064
7.9634	6.6868
7.8906	7.1509
7.8192	7.6033
7.7491	7.9604
7.6802	8.343
7.6126	8.6186
7.5461	8.831
7.4807	8.9756
7.4165	9.1567
7.3534	9.3093
7.2914	9.3921
7.2303	9.5381
7.1703	9.6257
7.1113	9.7666
7.0533	9.8161
6.9962	9.8786
6.94	9.9177
6.8847	9.9643
6.8302	9.9953
6.7767	10.008
6.7239	10.01
6.672	10.024
6.6209	10.053
6.5705	10.04
6.5209	10.096
6.4721	10.091
6.424	10.027
6.3766	10.059
6.3299	10.104
6.2838	10.145
6.2385	10.174
6.1937	10.183
6.1496	10.182
6.1062	10.152
6.0633	10.172
6.0211	10.146
5.9794	10.069
5.9383	9.9184
5.8978	9.8667
5.8578	9.8711
5.8184	9.7888
5.7794	9.9778
5.741	10.157
5.7031	10.12
5.6657	10.074
5.6288	10.04
5.5924	10.036
5.5564	10.024
5.5209	10.016
5.4859	10.006
5.4513	10.011
5.4171	9.9929
5.3833	9.9878
5.35	9.9529
5.3171	9.9721
5.2846	9.9485
5.2524	9.9438
5.2207	9.9409
5.1893	9.9541
5.1584	9.9514
5.1277	9.9482
5.0975	9.9392
5.0676	9.9367
5.038	9.9331
5.0088	9.9197
4.98	9.9028
4.9514	9.9018
4.9232	9.8933
4.8953	9.8781
4.8678	9.8772
4.8405	9.8628
4.8135	9.8413
4.7868	9.841
4.7605	9.8586
4.7344	9.8606
4.7086	9.8618
4.6831	9.8747
4.6578	9.8969
4.6328	9.9341
4.6081	9.9717
4.5837	9.9995
4.5595	10.03
4.5356	10.08
4.5119	10.104
4.4884	10.131
4.4652	10.137
4.4423	10.144
4.4196	10.144
4.3971	10.154
4.3748	10.167
4.3528	10.165
4.331	10.155
4.3094	10.158
4.288	10.162
4.2668	10.142
4.2458	10.149
4.2251	10.139
4.2045	10.129
4.1841	10.138
4.164	10.15
4.144	10.14
4.1242	10.13
4.1046	10.14
4.0852	10.145
4.066	10.129
4.047	10.127
4.0281	10.123
4.0094	10.107
3.9909	10.075
3.9725	10.071
3.9544	10.079
3.9363	10.078
3.9185	10.09
3.9008	10.093
3.8833	10.082
3.8659	10.067
3.8487	10.066
3.8316	10.055
3.8147	10.06
3.7979	10.053
3.7813	10.046
3.7648	10.055
3.7485	10.04
3.7323	10.03
3.7162	10.025
3.7003	9.9944
3.6845	9.9983
3.6689	9.9697
3.6534	9.9563
3.638	9.9414
3.6227	9.9311
3.6076	9.9106
3.5926	9.9052
3.5777	9.8471
3.563	9.8291
3.5484	9.7915
3.5338	9.7676
3.5195	9.7114
3.5052	9.7099
3.491	9.7099
3.477	9.7085
3.463	9.6582
3.4492	9.656
3.4355	9.657
3.4219	9.656
3.4084	9.6081
3.395	9.5034
3.3817	9.4726
3.3685	9.4822
3.3554	9.3572
3.3425	9.2956
3.3296	9.2988
3.3168	9.2812
3.3041	9.2646
3.2915	9.29
3.279	9.2964
3.2666	9.2842
3.2543	9.2329
3.2421	9.2094
3.23	9.1521
3.218	9.1211
3.206	9.0429
3.1942	8.9846
3.1824	8.9153
3.1707	8.8713
3.1591	8.8645
3.1476	8.8506
3.1362	8.7942
3.1249	8.7522
3.1136	8.7092
3.1024	8.6831
3.0913	8.6365
3.0803	8.6059
3.0694	8.5605
3.0585	8.5246
3.0477	8.4914
3.037	8.4563
3.0264	8.4341
3.0158	8.3877
3.0053	8.3501
2.9949	8.3481
2.9845	8.3293
2.9743	8.2942
2.9641	8.2431
2.9539	8.2053
2.9439	8.2004
2.9339	8.1545
2.9239	8.1333
2.9141	8.0871
2.9043	8.0686
2.8946	8.0498
2.8849	8.0371
2.8753	8.0068
2.8658	7.9739
2.8563	7.9756
2.8469	7.9992
2.8375	7.9836
2.8282	7.9641
2.819	7.9348
2.8098	7.9297
2.8007	7.9336
2.7917	7.8838
2.7827	7.8567
2.7738	7.7812
2.7649	7.7102
2.7561	7.6006
2.7473	7.5715
2.7386	7.5293
2.7299	7.4433
2.7213	7.3989
2.7128	7.7446
2.7043	7.8384
2.6959	7.9316
2.6875	8.125
2.6791	8.2768
2.6709	8.3037
2.6626	8.3315
2.6545	8.2685
2.6463	8.2138
2.6382	8.1909
2.6302	8.1064
2.6222	8.1523
2.6143	8.0942
2.6064	8.0522
2.5986	8.0688
2.5908	8.0317
2.583	7.979
2.5753	7.9717
2.5677	7.9619
2.5601	7.9365
2.5525	7.9419
2.545	7.9302
2.5375	7.9267
2.5301	7.915
2.5227	7.8926
2.5154	7.77
2.5081	7.7856
2.5008	7.8076
2.4936	7.772
2.4864	7.7895
2.4793	7.772
2.4722	7.7661
2.4651	7.7246
2.4581	7.7817
2.4511	7.7724
2.4442	7.7622
2.4373	7.7842
2.4305	7.7563
2.4236	7.7363
2.4169	7.7485
2.4101	7.6704
2.4034	7.6001
2.3967	7.4555
2.3901	7.3462
2.3835	7.3945
2.377	7.5469
2.3704	7.6821
2.364	7.727
2.3575	7.8096
2.3511	7.8144
2.3447	7.7715
2.3384	7.6855
2.3321	7.5439
2.3258	7.3681
2.3195	7.3096
2.3133	7.3222
2.3071	7.3554
2.301	7.3515
2.2949	7.3681
2.2888	7.5801
2.2828	7.6347
2.2767	7.7402
2.2708	7.8564
2.2648	7.9472
2.2589	8.0078
2.253	8.0156
2.2471	7.998
2.2413	8.0664
2.2355	8.1699
2.2297	8.1455
2.224	8.1484
2.2183	8.1914
2.2126	8.1894
2.207	8.1836
2.2013	8.2109
2.1957	8.2099
2.1902	8.2168
2.1846	8.2168
2.1791	8.251
2.1736	8.2822
2.1682	8.3359
2.1628	8.2656
2.1574	8.2695
2.152	8.2822
2.1466	8.25
2.1413	8.207
2.136	8.2558
2.1308	8.2461
2.1255	8.25
2.1203	8.333
2.1151	8.2949
2.11	8.2861
2.1048	8.3554
2.0997	8.3213
2.0946	8.3418
2.0895	8.3457
2.0845	8.3955
2.0795	8.414
