Name: Sanidine (K,Na)Al3O8
Type: Mineral
Class: Silicates
Subclass: Tectosilicates (Feldspar Group)
Particle Size: Coarse  (75 - 250  Micrometers)
Sample No.: sanidine.1
Owner: JHU
Wavelength Range: IR
Origin: Volkesfeld bei Kempenick, Eifel, Rheinland, Germany via Dave
Description: The hand sample was a large (56.16 g) fragment of what
Measurement: Bidirectional reflectance
X Units: Wavelength (micrometers)
Y Units: Reflectance (percent)
wavelength	value
25.0442	3.9673
24.3388	3.8271
23.6719	4.4221
23.0407	5.1587
22.4422	4.7212
21.8741	3.3066
21.334	2.5698
20.8199	2.1155
20.33	1.7305
19.8627	1.9966
19.4163	2.1501
18.9896	2.3127
18.5812	2.6335
18.19	2.8667
17.815	2.7463
17.4551	3.2781
17.1094	3.7981
16.7772	4.1706
16.4576	4.081
16.15	3.1335
15.8537	2.2261
15.568	2.102
15.2925	1.5105
15.0265	1.4756
14.7697	1.6279
14.5214	1.7634
14.2814	1.865
14.0492	1.8674
13.8244	1.8074
13.6067	1.749
13.3957	1.7275
13.1912	1.7024
12.9929	1.7122
12.8004	1.6968
12.6135	1.6196
12.432	1.5808
12.2557	1.7695
12.0843	1.9507
11.9176	2.0737
11.7555	2.1418
11.5977	2.1633
11.444	2.2334
11.2944	2.2666
11.1487	2.2808
11.0067	2.3816
10.8682	2.4482
10.7332	2.5659
10.6015	2.7092
10.473	2.885
10.3476	3.1767
10.2251	3.5112
10.1056	3.8913
9.98873	4.2751
9.87458	4.6396
9.763	4.9451
9.65392	5.3938
9.54724	5.886
9.44291	6.105
9.34082	5.2676
9.24091	4.8503
9.14312	4.6789
9.04739	4.696
8.95363	4.8
8.8618	5.0994
8.77183	5.8301
8.68368	6.3569
8.59727	6.3559
8.51257	6.1511
8.42951	6.1521
8.34807	6.1826
8.26819	5.5613
8.18981	4.4228
8.11292	3.1907
8.03745	2.0168
7.96337	1.0459
7.89064	0.4561
7.81924	0.2598
7.74911	0.2864
7.68023	0.3838
7.61256	0.4861
7.54608	0.5811
7.48074	0.6592
7.41653	0.7341
7.35341	0.8062
7.29136	0.8796
7.23034	0.9502
7.17033	1.0439
7.11132	1.1252
7.05327	1.1799
6.99616	1.2322
6.93996	1.2734
6.88467	1.2942
6.83024	1.3171
6.77667	1.3594
6.72393	1.3811
6.67201	1.4177
6.62089	1.4263
6.57054	1.4448
6.52095	1.4385
6.4721	1.425
6.42398	1.3957
6.37657	1.3516
6.32986	1.3315
6.28382	1.3188
6.23845	1.3315
6.19373	1.3398
6.14965	1.3787
6.10619	1.4141
6.06334	1.4607
6.02109	1.4888
5.97942	1.5281
5.93832	1.5315
5.89778	1.5178
5.8578	1.4868
5.81835	1.4373
5.77943	1.4119
5.74103	1.376
5.70314	1.343
5.66574	1.3396
5.62883	1.3523
5.5924	1.3821
5.55644	1.4556
5.52093	1.5591
5.48588	1.6653
5.45127	1.7849
5.41709	1.8833
5.38334	1.9727
5.35	2.0491
5.31708	2.1367
5.28456	2.2559
5.25243	2.4448
5.2207	2.6965
5.18934	3.0278
5.15836	3.385
5.12775	3.7847
5.09749	4.1985
5.0676	4.612
5.03805	4.9468
5.00884	5.1306
4.97998	5.146
4.95144	5.0408
4.92322	4.8745
4.89533	4.7331
4.86775	4.6628
4.84048	4.6572
4.81351	4.6933
4.78684	4.7224
4.76047	4.74
4.73439	4.7532
4.70859	4.7825
4.68306	4.8176
4.65782	4.9053
4.63284	5.052
4.60814	5.2412
4.58369	5.4856
4.5595	5.7576
4.53557	6.0625
4.51188	6.3569
4.48845	6.6784
4.46525	6.9931
4.44229	7.3083
4.41957	7.6228
4.39708	7.9494
4.37481	8.2754
4.35277	8.6003
4.33096	8.9277
4.30935	9.2402
4.28797	9.5439
4.26679	9.82
4.24583	10.0356
4.22506	10.2126
4.2045	10.341
4.18414	10.4384
4.16398	10.5205
4.14401	10.5571
4.12423	10.591
4.10464	10.604
4.08523	10.6308
4.066	10.6596
4.04696	10.6833
4.02809	10.7168
4.0094	10.7485
3.99088	10.7788
3.97253	10.8281
3.95435	10.8623
3.93634	10.9043
3.91848	10.9504
3.90079	11.0012
3.88326	11.0437
3.86589	11.0871
3.84867	11.1347
3.8316	11.1706
3.81468	11.2307
3.79791	11.2568
3.78129	11.2929
3.76482	11.3217
3.74848	11.3374
3.73229	11.3708
3.71624	11.3767
3.70032	11.4021
3.68454	11.4067
3.6689	11.4138
3.65338	11.4253
3.638	11.4272
3.62275	11.4153
3.60762	11.4094
3.59262	11.3925
3.57775	11.395
3.56299	11.375
3.54836	11.353
3.53385	11.3313
3.51945	11.3166
3.50517	11.2834
3.49101	11.2827
3.47696	11.2453
3.46303	11.2212
3.4492	11.1794
3.43549	11.1159
3.42188	11.0727
3.40838	11.0427
3.39499	10.9883
3.38171	10.9602
3.36852	10.9316
3.35544	10.883
3.34246	10.8567
3.32958	10.831
3.3168	10.7761
3.30411	10.761
3.29153	10.7414
3.27903	10.6904
3.26664	10.6726
3.25433	10.6245
3.24212	10.5864
3.23	10.55
3.21797	10.52
3.20603	10.4778
3.19418	10.4533
3.18241	10.4272
3.17074	10.3987
3.15914	10.3586
3.14763	10.3254
3.13621	10.2844
3.12487	10.2385
3.11361	10.2121
3.10243	10.175
3.09133	10.1445
3.0803	10.1108
3.06936	10.0639
3.0585	10.0298
3.04771	9.9983
3.037	9.9714
3.02636	9.938
3.0158	9.9004
3.00531	9.8608
2.99489	9.8471
2.98454	9.8232
2.97427	9.7942
2.96407	9.7668
2.95393	9.751
2.94387	9.7292
2.93387	9.7336
2.92394	9.7539
2.91408	9.7729
2.90429	9.8379
2.89456	9.9114
2.88489	9.9963
2.87529	10.1032
2.86576	10.2058
2.85628	10.3332
2.84687	10.4883
2.83752	10.593
2.82823	10.7175
2.81901	10.8393
2.80984	10.9831
2.80073	11.1023
2.79168	11.1804
2.78269	11.2768
2.77376	11.375
2.76488	11.4848
2.75606	11.5835
2.7473	11.6631
2.73859	11.7815
2.72994	11.843
2.72134	11.8947
2.7128	11.9397
2.70431	11.9509
2.69587	11.9821
2.68748	11.9812
2.67915	12.0341
2.67087	12.0547
2.66264	12.0634
2.65446	12.0708
2.64633	12.0908
2.63825	12.0686
2.63021	12.063
2.62223	12.0862
2.6143	12.0913
2.60641	12.0661
2.59857	12.0695
2.59078	12.0798
2.58304	12.0847
2.57534	12.0717
2.56768	12.0522
2.56008	12.0393
2.55251	12.0444
2.54499	12.0332
2.53752	12.021
2.53009	12.0383
2.5227	12.0092
2.51536	12.0149
2.50806	12.0039
2.5008	11.9931
2.49358	11.9687
2.4864	11.957
2.47927	11.9272
2.47218	11.9338
2.46512	11.8994
2.45811	11.8952
2.45114	11.9121
2.4442	11.8794
2.43731	11.8745
2.43045	11.8803
2.42363	11.8589
2.41685	11.8708
2.41011	11.8701
2.40341	11.874
2.39674	11.7939
2.39011	11.8315
2.38352	11.7956
2.37696	11.7934
2.37044	11.8086
2.36395	11.7583
2.35751	11.7778
2.35109	11.7517
2.34471	11.7639
2.33836	11.7282
2.33205	11.6902
2.32578	11.6804
2.31953	11.7019
2.31332	11.6653
2.30714	11.6687
2.301	11.6428
2.29489	11.6301
2.28881	11.6491
2.28276	11.6311
2.27675	11.6098
2.27076	11.6179
2.26481	11.612
2.25889	11.5971
2.253	11.5625
2.24714	11.5393
2.24131	11.5571
2.23551	11.5327
2.22974	11.5095
2.224	11.4853
2.21829	11.52
2.21261	11.5207
2.20696	11.4904
2.20134	11.4702
2.19574	11.4944
2.19018	11.5171
2.18464	11.5224
2.17913	11.4756
2.17365	11.5034
2.16819	11.5083
2.16277	11.5576
2.15737	11.5561
2.15199	11.5376
2.14665	11.4521
2.14133	11.5022
2.13603	11.5305
2.13077	11.4592
2.12552	11.4758
2.12031	11.511
2.11512	11.5356
2.10995	11.5136
2.10481	11.5322
2.0997	11.4839
2.09461	11.5
2.08954	11.5244
2.0845	11.4887
2.07948	11.5224
