Name: Topaz Al2SiO4(F,OH)2
Type: Mineral
Class: Silicates
Subclass: Nesosilicates (Isolated tetrahedra)
Particle Size: Fine  (0 - 74  Micrometers)
Sample No.: topaz.3
Owner: JHU
Wavelength Range: IR
Origin: Durango, Mexico via Don Hoover, USGS
Description: The sample was composed of several different colorless
Measurement: Bidirectional reflectance
X Units: Wavelength (micrometers)
Y Units: Reflectance (percent)
wavelength	value
25.0442	2.2617
24.3388	2.3887
23.6719	1.9966
23.0407	2.387
22.4422	2.9736
21.8741	3.4563
21.334	2.5901
20.8199	2.324
20.33	2.4534
19.8627	2.3169
19.4163	1.8267
18.9896	2.0669
18.5812	2.4097
18.19	2.8169
17.815	1.3899
17.4551	1.3157
17.1094	1.2519
16.7772	1.5908
16.4576	2.0474
16.15	2.832
15.8537	2.9726
15.568	3.0237
15.2925	3.0801
15.0265	3.019
14.7697	2.5854
14.5214	1.8713
14.2814	0.5295
14.0492	0.3975
13.8244	0.7781
13.6067	1.7688
13.3957	2.3835
13.1912	2.8035
12.9929	2.6475
12.8004	2.447
12.6135	2.5928
12.432	2.3672
12.2557	2.1199
12.0843	1.8401
11.9176	1.7085
11.7555	1.8181
11.5977	2.3547
11.444	2.8413
11.2944	2.8535
11.1487	2.7539
11.0067	2.6787
10.8682	2.6482
10.7332	2.6528
10.6015	2.9761
10.473	3.1921
10.3476	3.1677
10.2251	3.0642
10.1056	2.585
9.98873	2.7561
9.87458	3.3489
9.763	3.7742
9.65392	4.0818
9.54724	4.2978
9.44291	4.1287
9.34082	3.8069
9.24091	3.248
9.14312	2.415
9.04739	1.6548
8.95363	1.0703
8.8618	0.6467
8.77183	0.3743
8.68368	0.2793
8.59727	0.2891
8.51257	0.4463
8.42951	0.6785
8.34807	0.9922
8.26819	1.3013
8.18981	1.7805
8.11292	2.2751
8.03745	2.6777
7.96337	3.0654
7.89064	3.6279
7.81924	4.1265
7.74911	4.6428
7.68023	4.8882
7.61256	5.1035
7.54608	5.3535
7.48074	5.6123
7.41653	5.8655
7.35341	6.2707
7.29136	6.6184
7.23034	6.8503
7.17033	7.0603
7.11132	7.3069
7.05327	7.3916
6.99616	7.4536
6.93996	7.6308
6.88467	7.8818
6.83024	8.0676
6.77667	8.0691
6.72393	8.0549
6.67201	8.2209
6.62089	8.4807
6.57054	8.7102
6.52095	8.8525
6.4721	8.9306
6.42398	9.0598
6.37657	9.2077
6.32986	9.352
6.28382	9.4009
6.23845	9.4543
6.19373	9.6191
6.14965	9.7971
6.10619	9.9282
6.06334	10.1072
6.02109	10.3579
5.97942	10.5844
5.93832	10.6723
5.89778	10.5603
5.8578	10.0725
5.81835	9.3625
5.77943	9.0447
5.74103	9.4629
5.70314	9.6562
5.66574	9.3288
5.62883	8.7483
5.5924	7.644
5.55644	6.4807
5.52093	6.0266
5.48588	6.1328
5.45127	6.3882
5.41709	6.6953
5.38334	6.5854
5.35	6.5376
5.31708	6.8115
5.28456	7.206
5.25243	7.7427
5.2207	8.7597
5.18934	9.6506
5.15836	10.2331
5.12775	10.5815
5.09749	10.9345
5.0676	11.3198
5.03805	11.6096
5.00884	11.7805
4.97998	11.7839
4.95144	11.5078
4.92322	11.8344
4.89533	12.7578
4.86775	13.3664
4.84048	13.6711
4.81351	13.8596
4.78684	13.9902
4.76047	14.0683
4.73439	14.1154
4.70859	14.1599
4.68306	14.1923
4.65782	14.2292
4.63284	14.2736
4.60814	14.3144
4.58369	14.3371
4.5595	14.3657
4.53557	14.3784
4.51188	14.3745
4.48845	14.3803
4.46525	14.4116
4.44229	14.438
4.41957	14.4638
4.39708	14.4978
4.37481	14.5146
4.35277	14.5232
4.33096	14.5088
4.30935	14.5075
4.28797	14.5691
4.26679	14.5903
4.24583	14.6257
4.22506	14.6438
4.2045	14.6526
4.18414	14.6389
4.16398	14.6413
4.14401	14.6179
4.12423	14.612
4.10464	14.6279
4.08523	14.6489
4.066	14.6723
4.04696	14.6843
4.02809	14.6992
4.0094	14.6806
3.99088	14.688
3.97253	14.6897
3.95435	14.6965
3.93634	14.696
3.91848	14.6787
3.90079	14.6521
3.88326	14.5908
3.86589	14.498
3.84867	14.4748
3.8316	14.5031
3.81468	14.5234
3.79791	14.5366
3.78129	14.5532
3.76482	14.5771
3.74848	14.5776
3.73229	14.5739
3.71624	14.5695
3.70032	14.552
3.68454	14.5371
3.6689	14.5014
3.65338	14.4531
3.638	14.4209
3.62275	14.3969
3.60762	14.3903
3.59262	14.3764
3.57775	14.3405
3.56299	14.3276
3.54836	14.3
3.53385	14.268
3.51945	14.2097
3.50517	14.0117
3.49101	14.0876
3.47696	14.1338
3.46303	14.1172
3.4492	14.049
3.43549	13.9506
3.42188	13.729
3.40838	13.7634
3.39499	13.9001
3.38171	13.9172
3.36852	13.9423
3.35544	13.9912
3.34246	13.9914
3.32958	13.9846
3.3168	13.9582
3.30411	13.9433
3.29153	13.9255
3.27903	13.8911
3.26664	13.8745
3.25433	13.8391
3.24212	13.822
3.23	13.7849
3.21797	13.7673
3.20603	13.7465
3.19418	13.7258
3.18241	13.6948
3.17074	13.6753
3.15914	13.6364
3.14763	13.6125
3.13621	13.5769
3.12487	13.559
3.11361	13.5393
3.10243	13.5158
3.09133	13.4922
3.0803	13.4731
3.06936	13.4531
3.0585	13.4292
3.04771	13.4179
3.037	13.4287
3.02636	13.3925
3.0158	13.3552
3.00531	13.3442
2.99489	13.3149
2.98454	13.3242
2.97427	13.2851
2.96407	13.2573
2.95393	13.2231
2.94387	13.1684
2.93387	12.916
2.92394	10.5234
2.91408	11.6938
2.90429	12.2883
2.89456	13.1096
2.88489	13.2844
2.87529	13.3115
2.86576	13.3359
2.85628	13.3847
2.84687	13.3974
2.83752	13.4167
2.82823	13.4165
2.81901	13.4731
2.80984	13.519
2.80073	13.5483
2.79168	13.5864
2.78269	13.573
2.77376	13.5932
2.76488	13.4736
2.75606	13.2277
2.7473	13.0793
2.73859	10.8418
2.72994	13.7712
2.72134	14.0151
2.7128	14.1523
2.70431	14.163
2.69587	14.4707
2.68748	14.7915
2.67915	14.9184
2.67087	14.9721
2.66264	15.0722
2.65446	15.1572
2.64633	15.1753
2.63825	15.167
2.63021	15.163
2.62223	15.2014
2.6143	15.2065
2.60641	15.1577
2.59857	15.2104
2.59078	15.2407
2.58304	15.2275
2.57534	15.2519
2.56768	15.2373
2.56008	15.247
2.55251	15.2299
2.54499	15.2573
2.53752	15.2768
2.53009	15.2429
2.5227	15.247
2.51536	15.2734
2.50806	15.302
2.5008	15.301
2.49358	15.3066
2.4864	15.3108
2.47927	15.3508
2.47218	15.3193
2.46512	15.3215
2.45811	15.3437
2.45114	15.365
2.4442	15.3493
2.43731	15.3576
2.43045	15.3938
2.42363	15.3852
2.41685	15.4111
2.41011	15.4614
2.40341	15.424
2.39674	15.4262
2.39011	15.4377
2.38352	15.468
2.37696	15.4555
2.37044	15.465
2.36395	15.4267
2.35751	15.4318
2.35109	15.4035
2.34471	15.4699
2.33836	15.4731
2.33205	15.4643
2.32578	15.4895
2.31953	15.5354
2.31332	15.5224
2.30714	15.5429
2.301	15.5566
2.29489	15.5637
2.28881	15.6047
2.28276	15.5578
2.27675	15.542
2.27076	15.5527
2.26481	15.5803
2.25889	15.5998
2.253	15.5764
2.24714	15.5937
2.24131	15.5754
2.23551	15.6181
2.22974	15.5932
2.224	15.5654
2.21829	15.6311
2.21261	15.5637
2.20696	15.5012
2.20134	15.592
2.19574	15.6113
2.19018	15.6594
2.18464	15.6191
2.17913	15.5976
2.17365	15.624
2.16819	15.6709
2.16277	15.665
2.15737	15.6555
2.15199	15.5922
2.14665	15.622
2.14133	15.6484
2.13603	15.6606
2.13077	15.6577
2.12552	15.707
2.12031	15.6504
2.11512	15.6709
2.10995	15.6577
2.10481	15.6777
2.0997	15.6894
2.09461	15.6694
2.08954	15.6718
2.0845	15.6665
2.07948	15.602
