Name: Shale (Arenaceous)
Type: Rocks
Class: Sedimentary
Subclass: Shale
Particle Size: 500 - 1500 Micrometers
Sample No.: shale.1
Owner: JHU
Wavelength Range: All
Origin: Sample No. 387,  The Hunt and Salisbury Collection at the U.S.
Description: A well-sorted sample, consisting of medium fine-grained
Measurement: Directional (10 Degree) Hemispherical Reflectance
X Units: Wavelength (micrometers)
Y Units: Reflectance (percent)
wavelength	value
14.0112	1.4434
13.7147	1.7315
13.4304	1.8599
13.1577	1.9545
12.8959	2.2373
12.6443	1.9131
12.4023	1.3465
12.1694	1.515
11.945	1.9203
11.7289	2.2691
11.5203	2.4641
11.3191	2.6512
11.1248	2.7665
10.937	2.6708
10.7555	2.3416
10.5799	2.3942
10.4099	2.7416
10.2454	3.1188
10.0859	3.5865
9.9313	4.1275
9.7814	4.1283
9.636	5.2187
9.4948	5.9826
9.3577	6.9081
9.2245	6.4602
9.095	5.3105
8.9691	4.5677
8.8467	5.7451
8.7275	5.4137
8.6116	4.294
8.4986	5.0421
8.3886	5.0577
8.2814	5.3555
8.1769	5.7912
8.075	4.289
7.9756	2.9108
7.8786	1.871
7.784	1.5107
7.6916	1.3676
7.6014	1.1898
7.5133	1.1387
7.4272	1.0774
7.343	1.0451
7.2607	1.0902
7.1803	1.1173
7.1016	1.1537
7.0246	1.1422
6.9493	1.2255
6.8755	1.2509
6.8034	1.2403
6.7327	1.3264
6.6634	1.3884
6.5956	1.4104
6.5292	1.4868
6.464	1.6205
6.4002	1.555
6.3376	1.4554
6.2762	1.3704
6.216	1.2824
6.157	1.2869
6.099	1.3535
6.0421	1.3853
5.9863	1.5322
5.9315	1.5935
5.8777	1.7942
5.8249	2.0701
5.773	2.2938
5.722	2.5046
5.6719	2.5098
5.6227	2.3003
5.5744	2.2715
5.5268	2.3466
5.4801	2.4088
5.4341	2.5328
5.3889	2.2518
5.3445	2.0655
5.3008	2.1821
5.2578	2.4231
5.2154	2.8285
5.1738	2.9402
5.1328	2.991
5.0925	3.0551
5.0528	3.0597
5.0137	3.1589
4.9752	3.4939
4.9373	4.0999
4.9	5.0591
4.8632	6.3868
4.827	7.1155
4.7913	7.7125
4.7561	8.1175
4.7215	8.2975
4.6873	8.0704
4.6536	8.5772
4.6205	9.3726
4.5877	9.9069
4.5555	10.1605
4.5237	9.8727
4.4923	9.2504
4.4614	9.3167
4.4309	9.9069
4.4008	10.506
4.3711	11.2425
4.3418	11.8437
4.3129	12.1186
4.2844	12.1634
4.2563	12.4261
4.2285	12.9125
4.2011	13.2041
4.174	13.5563
4.1473	13.8872
4.1209	14.2681
4.0949	14.6456
4.0692	14.9517
4.0438	15.1641
4.0187	15.3132
3.994	15.4584
3.9695	15.6256
3.9453	15.7695
3.9214	15.8405
3.8979	15.7735
3.8746	15.5874
3.8515	15.4307
3.8288	15.2757
3.8063	15.0476
3.7841	14.7203
3.7621	14.3689
3.7404	13.881
3.7189	13.5728
3.6977	13.0254
3.6767	12.9641
3.656	12.7321
3.6355	12.3593
3.6152	11.9356
3.5951	11.5164
3.5753	11.0776
3.5557	10.6168
3.5363	10.1541
3.5171	9.6626
3.4981	9.2767
3.4793	9.1573
3.4607	8.7812
3.4423	8.3274
3.4241	8.0319
3.4061	7.6945
3.3883	7.3789
3.3707	7.0131
3.3533	6.738
3.336	6.5186
3.3189	6.208
3.302	5.9695
3.2853	5.7104
3.2687	5.4569
3.2523	5.2464
3.2361	5.0605
3.22	4.7923
3.204	4.6303
3.1883	4.4069
3.1727	4.1992
3.1572	4.085
3.1419	3.9441
3.1268	3.7851
3.1117	3.691
3.0969	3.5786
3.0821	3.5245
3.0675	3.4187
3.0531	3.403
3.0388	3.3646
3.0246	3.2951
3.0105	3.263
2.9966	3.2273
2.9828	3.1742
2.9692	3.1185
2.9556	3.0472
2.9422	3.0263
2.9289	3.0804
2.9157	3.0486
2.9027	3.0656
2.8897	3.1101
2.8769	3.1546
2.8642	3.1857
2.8516	3.1666
2.8391	3.23
2.8267	3.2149
2.8144	3.1744
2.8022	3.0846
2.7902	2.9206
2.7782	2.6811
2.7664	2.1615
2.7546	1.8018
2.7429	1.9205
2.7314	1.8822
2.7199	2.0672
2.7085	1.8808
2.6973	2.4074
2.6861	4.7124
2.675	6.8734
2.664	8.5322
2.6531	10.0091
2.6423	10.9621
2.6315	11.5432
2.6209	12.1708
2.6103	12.6105
2.5999	12.8192
2.5895	12.9787
2.5792	13.324
2.569	13.6022
2.5588	14.1727
2.5487	14.3509
2.5388	14.6466
2.5289	14.9062
2.519	15.1809
2.5093	15.3746
2.4996	15.6659
2.49	15.7713
2.4805	16.392
2.471	16.765
2.4616	17.0045
2.4523	17.2456
2.4431	17.5847
2.4339	18.297
2.4248	19.0307
2.4157	19.6598
2.4068	19.9217
2.3979	19.7942
2.389	19.348
2.3802	19.2891
2.3715	20.1608
2.3629	20.4749
2.3543	20.4467
2.3458	20.9975
2.3373	21.5624
2.3289	21.5637
2.3206	21.8339
2.3123	22.1543
2.3041	22.8543
2.2959	23.3345
2.2878	23.787
2.2798	24.2267
2.2718	24.547
2.2638	24.7248
2.2559	24.6906
2.2481	24.7012
2.2403	24.5804
2.2326	24.5626
2.225	23.9781
2.2173	22.3493
2.2098	16.9658
2.2023	19.8419
2.1948	21.013
2.1874	21.614
2.18	21.9201
2.1727	21.9925
2.1655	22.0602
2.1583	22.6552
2.1511	23.9999
2.144	25.9917
2.1369	27.0322
2.1299	27.6866
2.1229	27.9634
2.116	28.0433
2.1091	28.3213
2.1023	28.6619
2.0955	28.8633
2.0887	28.8443
2.082	29.1377
2.06	29.296
2.028	29.3799
1.996	28.7048
1.964	27.704
1.932	26.5068
1.9	25.2048
1.868	30.8589
1.836	32.2298
1.804	32.1984
1.772	32.2624
1.74	32.6544
1.708	32.5194
1.676	32.2984
1.644	32.4227
1.612	32.1801
1.58	32.0161
1.548	31.8658
1.516	31.5179
1.484	31.0765
1.452	30.5549
1.42	29.3723
1.388	26.7399
1.356	30.0638
1.324	30.5874
1.292	30.501
1.26	30.4471
1.228	30.0094
1.196	29.8134
1.164	29.4734
1.132	29.1913
1.1	28.628
1.068	28.2909
1.036	28.2824
1.004	27.9256
0.972	27.7385
0.94	27.4625
0.908	27.3501
0.876	27.1463
0.844	26.8188
0.812	26.4228
0.795	26.2065
0.787	25.9721
0.779	25.6854
0.771	25.1917
0.763	25.3011
0.755	25.1185
0.747	24.9341
0.739	24.7854
0.731	24.5382
0.723	24.2904
0.715	24.265
0.707	23.8907
0.699	23.9375
0.691	23.6317
0.683	23.3977
0.675	23.3107
0.667	23.2931
0.659	22.8144
0.651	22.523
0.643	22.7192
0.635	22.2586
0.627	22.1648
0.619	21.9513
0.611	21.8141
0.603	21.5928
0.595	21.2432
0.587	21.3208
0.579	21.1723
0.571	20.966
0.563	20.7222
0.555	20.1526
0.547	20.116
0.539	20.0869
0.531	19.7333
0.523	19.5623
0.515	19.6139
0.507	19.3287
0.499	19.1426
0.491	19.1215
0.483	18.7994
0.475	18.8941
0.467	18.7117
0.459	18.0429
0.451	18.1676
0.443	17.8404
0.435	17.6646
0.427	17.316
0.419	16.8947
0.411	17.0535
0.403	16.7574
