Name: Almandine Fe3+2Al2(SiO4)3
Type: Mineral
Class: Silicates
Subclass: Nesosilicates (Isolated Tetrahedra) (Garnet Group)
Particle Size: Coarse (74-250 Micrometers)
Sample No.: almandine.1
Owner: JHU
Wavelength Range: IR
Origin: Sample from Stikine River, Fort Wrangell, Alaska, USA via the
Description: The sample was a single deep maroon crystal about 2 cm
Measurement: Bidirectional reflectance
X Units: Wavelength (micrometers)
Y Units: Reflectance (percent)
wavelength	value
25.044	2.3457
24.339	3.2151
23.672	4.2239
23.041	5.7119
22.442	8.9101
21.874	9.5656
21.334	9.208
20.82	12.2028
20.33	12.144
19.863	11.622
19.416	9.1618
18.99	5.6601
18.581	4.6416
18.19	1.3652
17.815	3.6672
17.455	7.2366
17.109	7.8598
16.777	6.51
16.458	3.1614
16.15	0.6587
15.854	0.6372
15.568	0.7056
15.292	0.6655
15.027	0.9216
14.77	1.1501
14.521	1.3269
14.281	1.5051
14.049	1.6492
13.824	1.731
13.607	1.8801
13.396	2.0002
13.191	2.0847
12.993	2.2693
12.8	2.4216
12.614	2.5854
12.432	2.79
12.256	3.001
12.084	3.3484
11.918	3.8784
11.755	4.5991
11.598	5.9878
11.444	8.1858
11.294	6.4253
11.149	7.8511
11.007	9.3183
10.868	7.4985
10.733	2.689
10.602	2.135
10.473	4.8672
10.348	9.8244
10.225	11.5908
10.106	11.9658
9.989	11.821
9.875	11.3747
9.763	10.4997
9.654	8.8418
9.547	6.9734
9.443	5.1057
9.341	3.0969
9.241	1.3887
9.143	0.3342
9.047	0.1602
8.954	0.2551
8.862	0.3467
8.772	0.4534
8.684	0.5259
8.597	0.6033
8.513	0.6919
8.43	0.7932
8.348	0.8853
8.268	0.9651
8.19	1.0601
8.113	1.145
8.037	1.2109
7.963	1.3127
7.891	1.425
7.819	1.5149
7.749	1.5996
7.68	1.6143
7.613	1.606
7.546	1.6042
7.481	1.6106
7.417	1.6196
7.353	1.5874
7.291	1.5703
7.23	1.5915
7.17	1.6482
7.111	1.7292
7.053	1.8186
6.996	1.9099
6.94	1.926
6.885	1.8914
6.83	1.863
6.777	1.8606
6.724	1.8918
6.672	1.9319
6.621	2.0227
6.571	2.1194
6.521	2.2019
6.472	2.2529
6.424	2.3376
6.377	2.4639
6.33	2.582
6.284	2.6638
6.238	2.7205
6.194	2.7541
6.15	2.7886
6.106	2.8115
6.063	2.8315
6.021	2.8403
5.979	2.8296
5.938	2.7659
5.898	2.6872
5.858	2.5105
5.818	2.2163
5.779	1.9954
5.741	1.8572
5.703	1.7666
5.666	1.7212
5.629	1.7275
5.592	1.7485
5.556	1.7646
5.521	1.771
5.486	1.8237
5.451	1.9158
5.417	1.9805
5.383	2.0813
5.35	2.158
5.317	2.1509
5.285	2.158
5.252	2.2158
5.221	2.3213
5.189	2.4346
5.158	2.5701
5.128	2.762
5.097	2.9858
5.068	3.2429
5.038	3.4741
5.009	3.6404
4.98	3.7522
4.951	3.875
4.923	3.9785
4.895	4.0752
4.868	4.1372
4.84	4.1995
4.814	4.2876
4.787	4.3801
4.76	4.4675
4.734	4.5486
4.709	4.6113
4.683	4.6838
4.658	4.7534
4.633	4.8181
4.608	4.8784
4.584	4.9411
4.56	5.0061
4.536	5.0583
4.512	5.1062
4.488	5.1794
4.465	5.2412
4.442	5.3108
4.42	5.3813
4.397	5.4485
4.375	5.5168
4.353	5.5661
4.331	5.6282
4.309	5.6965
4.288	5.7422
4.267	5.8098
4.246	5.8689
4.225	5.9409
4.205	6.0168
4.184	6.0652
4.164	6.1291
4.144	6.1806
4.124	6.2461
4.105	6.2908
4.085	6.3716
4.066	6.4341
4.047	6.5058
4.028	6.5559
4.009	6.6067
3.991	6.6609
3.973	6.7075
3.954	6.7615
3.936	6.8137
3.918	6.8489
3.901	6.8703
3.883	6.8789
3.866	6.884
3.849	6.8967
3.832	6.9145
3.815	6.938
3.798	6.9729
3.781	7.0151
3.765	7.0644
3.748	7.1125
3.732	7.1667
3.716	7.2165
3.7	7.2742
3.685	7.323
3.669	7.3728
3.653	7.427
3.638	7.4724
3.623	7.5044
3.608	7.5366
3.593	7.5808
3.578	7.6208
3.563	7.6499
3.548	7.686
3.534	7.7263
3.519	7.7468
3.505	7.7742
3.491	7.8191
3.477	7.8459
3.463	7.8684
3.449	7.8865
3.435	7.894
3.422	7.8989
3.408	7.9238
3.395	7.9426
3.382	7.9656
3.369	7.9812
3.355	7.9885
3.342	8.0234
3.33	8.0227
3.317	8.0198
3.304	8.0351
3.292	8.0183
3.279	8.0325
3.267	8.0178
3.254	8.0168
3.242	7.9968
3.23	7.9861
3.218	7.958
3.206	7.9463
3.194	7.9377
3.182	7.9104
3.171	7.8742
3.159	7.8459
3.148	7.8269
3.136	7.7893
3.125	7.7436
3.114	7.719
3.102	7.6809
3.091	7.6328
3.08	7.5818
3.069	7.5405
3.058	7.5044
3.048	7.4433
3.037	7.4065
3.026	7.3601
3.016	7.3008
3.005	7.2344
2.995	7.1963
2.985	7.1421
2.974	7.072
2.964	7.0073
2.954	6.9487
2.944	6.8872
2.934	6.8284
2.924	6.7776
2.914	6.7014
2.904	6.6277
2.895	6.5159
2.885	6.415
2.875	6.3442
2.866	6.2783
2.856	6.1626
2.847	6.0725
2.838	5.8511
2.828	5.7932
2.819	5.7895
2.81	5.8357
2.801	5.865
2.792	5.8879
2.783	5.8987
2.774	5.8965
2.765	5.8601
2.756	5.8091
2.747	5.7561
2.739	5.6997
2.73	5.6474
2.721	5.6252
2.713	5.6062
2.704	5.5686
2.696	5.4875
2.687	5.4409
2.679	5.3586
2.671	5.3262
2.663	5.2624
2.654	5.219
2.646	5.1694
2.638	5.1128
2.63	5.051
2.622	5.0122
2.614	4.977
2.606	4.8935
2.599	4.8586
2.591	4.8093
2.583	4.7612
2.575	4.7312
2.568	4.6753
2.56	4.6604
2.553	4.6006
2.545	4.5762
2.538	4.5339
2.53	4.4748
2.523	4.4538
2.515	4.4231
2.508	4.3894
2.501	4.3826
2.494	4.3486
2.486	4.2912
2.479	4.2839
2.472	4.27
2.465	4.2573
2.458	4.2353
2.451	4.1938
2.444	4.2007
2.437	4.1704
2.43	4.1616
2.424	4.1592
2.417	4.1426
2.41	4.1435
2.403	4.0823
2.397	4.0752
2.39	4.0796
2.384	4.0432
2.377	4.0469
2.37	4.031
2.364	4.0234
2.358	4.0312
2.351	4.0417
2.345	4.0351
2.338	4.0234
2.332	4.0156
2.326	4.0141
2.32	3.9927
2.313	4.0141
2.307	4.0478
2.301	4.0273
2.295	4.0254
2.289	4.0293
2.283	4.0215
2.277	4.0259
2.271	4.0185
2.265	4.0425
2.259	4.0205
2.253	4.0351
2.247	4.0671
2.241	4.0742
2.236	4.0871
2.23	4.083
2.224	4.0679
2.218	4.0737
2.213	4.1321
2.207	4.0747
2.201	4.1116
2.196	4.1352
2.19	4.1282
2.185	4.1453
2.179	4.176
2.174	4.1741
2.168	4.2109
2.163	4.1916
2.157	4.1848
2.152	4.1924
2.147	4.206
2.141	4.2012
2.136	4.2041
2.131	4.227
2.126	4.2383
2.12	4.2541
2.115	4.2715
2.11	4.2668
2.105	4.281
2.1	4.2978
2.095	4.3245
2.09	4.3252
2.085	4.3371
2.079	4.3411
