Name: Sodalite Na8Al6Si6O24Cl2
Type: Mineral
Class: Silicates
Subclass: Tectosilicates (Framework silicates); Feldspathoid Group
Particle Size: Fine (Less than 2 Micrometers)
Sample No.: sodalite.1
Owner: JHU
Wavelength Range: IR
Origin: Bancroft, Ontario, Canada via Norma Vergo.
Description: The hand sample was a large chunk of vivid blue
Measurement: Transmission
X Units: Wavelength (micrometers)
Y Units: Transmittance (percent)
wavelength	value
25.0442	74.4686
24.3388	62.2264
23.6719	50.5194
23.0407	13.2187
22.4422	25.7753
21.8741	41.2909
21.334	16.3359
20.8199	33.8359
20.33	71.8904
19.8627	82.4861
19.4163	87.0427
18.9896	89.4646
18.5812	90.0994
18.19	90.7537
17.815	90.992
17.4551	90.8406
17.1094	90.2869
16.7772	90.4529
16.4576	90.1287
16.15	89.3142
15.8537	88.0691
15.568	84.7556
15.2925	74.8963
15.0265	35.8466
14.7697	63.8597
14.5214	77.3592
14.2814	69.8851
14.0492	43.619
13.8244	58.4203
13.6067	19.7587
13.3957	56.5575
13.1912	79.2029
12.9929	85.9241
12.8004	88.2273
12.6135	89.2737
12.432	89.6585
12.2557	89.0491
12.0843	87.4944
11.9176	85.0008
11.7555	81.8265
11.5977	77.8562
11.444	73.6312
11.2944	68.9774
11.1487	63.5492
11.0067	57.1747
10.8682	48.7894
10.7332	38.3578
10.6015	26.1708
10.473	13.955
10.3476	4.7764
10.2251	1.1182
10.1056	1.6352
9.98873	4.0791
9.87458	6.6855
9.763	7.3027
9.65392	10.9843
9.54724	20.1064
9.44291	30.6425
9.34082	37.5839
9.24091	42.3485
9.14312	46.434
9.04739	50.4257
8.95363	54.2323
8.8618	57.7782
8.77183	60.6746
8.68368	64.2069
8.59727	67.7335
8.51257	71.0428
8.42951	74.0499
8.34807	76.6697
8.26819	78.8086
8.18981	80.2647
8.11292	81.2012
8.03745	82.0423
7.96337	82.8992
7.89064	83.5869
7.81924	84.1526
7.74911	84.7005
7.68023	85.2019
7.61256	85.626
7.54608	86.0867
7.48074	84.3145
7.41653	86.3809
7.35341	86.843
7.29136	87.1934
7.23034	87.3975
7.17033	87.53
7.11132	87.6653
7.05327	87.6638
6.99616	87.6521
6.93996	87.2959
6.88467	87.2366
6.83024	87.9841
6.77667	88.6201
6.72393	89.1065
6.67201	89.3806
6.62089	89.3887
6.57054	89.2219
6.52095	89.626
6.4721	89.6062
6.42398	89.4238
6.37657	89.3848
6.32986	89.3574
6.28382	89.0916
6.23845	88.5769
6.19373	87.9414
6.14965	87.8115
6.10619	87.7468
6.06334	88.3779
6.02109	88.5584
5.97942	88.9119
5.93832	89.407
5.89778	89.6189
5.8578	87.8797
5.81835	90.5076
5.77943	91.4295
5.74103	91.6629
5.70314	91.708
5.66574	91.8076
5.62883	91.9775
5.5924	92.1524
5.55644	92.136
5.52093	92.2341
5.48588	92.3396
5.45127	92.4343
5.41709	92.5498
5.38334	92.7175
5.35	92.7566
5.31708	92.8533
5.28456	92.918
5.25243	93.0046
5.2207	93.0254
5.18934	93.0137
5.15836	92.8074
5.12775	92.3047
5.09749	92.7048
5.0676	92.8643
5.03805	92.9226
5.00884	92.9783
4.97998	92.9854
4.95144	93.0056
4.92322	92.7813
4.89533	92.7598
4.86775	92.7498
4.84048	92.8723
4.81351	93.0068
4.78684	93.0935
4.76047	93.1863
4.73439	93.2236
4.70859	93.2285
4.68306	93.199
4.65782	93.2656
4.63284	93.3242
4.60814	93.3408
4.58369	93.3669
4.5595	93.4138
4.53557	93.4055
4.51188	93.4211
4.48845	93.4002
4.46525	93.3875
4.44229	93.4119
4.41957	93.4119
4.39708	93.4163
4.37481	93.4143
4.35277	93.4587
4.33096	93.4524
4.30935	93.4553
4.28797	93.4534
4.26679	93.446
4.24583	93.4627
4.22506	93.4592
4.2045	93.449
4.18414	93.4417
4.16398	93.4627
4.14401	93.4783
4.12423	93.4788
4.10464	93.471
4.08523	93.4924
4.066	93.489
4.04696	93.4807
4.02809	93.49
4.0094	93.4885
3.99088	93.5046
3.97253	93.5061
3.95435	93.4812
3.93634	93.4753
3.91848	93.4685
3.90079	93.4421
3.88326	93.4583
3.86589	93.408
3.84867	93.3904
3.8316	93.3743
3.81468	93.3523
3.79791	93.3298
3.78129	93.2644
3.76482	93.2351
3.74848	93.217
3.73229	93.2253
3.71624	93.1414
3.70032	93.1204
3.68454	93.0471
3.6689	93.0515
3.65338	92.9871
3.638	92.9265
3.62275	92.8987
3.60762	92.8582
3.59262	92.783
3.57775	92.7136
3.56299	92.6824
3.54836	92.5979
3.53385	92.5588
3.51945	92.4827
3.50517	92.3962
3.49101	92.2913
3.47696	92.2307
3.46303	92.1389
3.4492	92.0745
3.43549	92.0134
3.42188	91.8811
3.40838	91.7498
3.39499	91.7229
3.38171	91.6702
3.36852	91.5803
3.35544	91.4812
3.34246	91.3948
3.32958	91.3792
3.3168	91.2771
3.30411	91.178
3.29153	91.0667
3.27903	90.947
3.26664	90.7717
3.25433	90.6619
3.24212	90.5647
3.23	90.4304
3.21797	90.2835
3.20603	90.1565
3.19418	89.9607
3.18241	89.7776
3.17074	89.594
3.15914	89.3284
3.14763	89.0667
3.13621	88.7991
3.12487	88.4866
3.11361	88.1951
3.10243	88.0076
3.09133	87.864
3.0803	87.5769
3.06936	87.3103
3.0585	87.1072
3.04771	86.9373
3.037	86.6824
3.02636	86.2693
3.0158	85.8328
3.00531	85.4158
2.99489	85.0994
2.98454	84.8308
2.97427	84.4685
2.96407	83.9929
2.95393	83.6209
2.94387	83.3289
2.93387	83.283
2.92394	83.1053
2.91408	83.075
2.90429	83.0711
2.89456	83.2937
2.88489	83.489
2.87529	83.8982
2.86576	84.1756
2.85628	84.6023
2.84687	84.8328
2.83752	85.0594
2.82823	85.114
2.81901	85.4021
2.80984	85.7752
2.80073	86.2556
2.79168	86.8328
2.78269	87.4959
2.77376	88.158
2.76488	88.9109
2.75606	89.4646
2.7473	90.2537
2.73859	90.5007
2.72994	91.0037
2.72134	91.325
2.7128	91.4773
2.70431	91.4773
2.69587	91.4451
2.68748	91.4373
2.67915	91.4119
2.67087	91.2244
2.66264	91.3806
2.65446	91.3289
2.64633	91.2898
2.63825	91.2927
2.63021	91.0916
2.62223	91.1365
2.6143	91.0711
2.60641	90.9646
2.59857	91.0867
2.59078	90.9685
2.58304	90.7888
2.57534	90.8064
2.56768	90.8406
2.56008	90.739
2.55251	90.781
2.54499	90.6492
2.53752	90.783
2.53009	90.6931
2.5227	90.6365
2.51536	90.5545
2.50806	90.5388
2.5008	90.4529
2.49358	90.3552
2.4864	90.3767
2.47927	90.2986
2.47218	90.2029
2.46512	90.2361
2.45811	90.2029
2.45114	90.2732
2.4442	90.242
2.43731	90.1209
2.43045	90.0388
2.42363	90.0818
2.41685	89.9783
2.41011	89.9685
2.40341	89.9724
2.39674	89.9002
2.39011	89.9002
2.38352	89.8787
2.37696	89.8142
2.37044	89.8513
2.36395	89.7732
2.35751	89.8045
2.35109	89.7361
2.34471	89.7888
2.33836	89.7673
2.33205	89.6091
2.32578	89.7146
2.31953	89.6951
2.31332	89.6345
2.30714	89.7048
2.301	89.6716
2.29489	89.7283
2.28881	89.6638
2.28276	89.5154
2.27675	89.6482
2.27076	89.5642
2.26481	89.6345
2.25889	89.5642
2.253	89.4783
2.24714	89.5427
2.24131	89.5017
2.23551	89.6423
2.22974	89.6326
2.224	89.6892
2.21829	89.7732
2.21261	89.6716
2.20696	89.6091
2.20134	89.7595
2.19574	89.7029
2.19018	89.6814
2.18464	89.6404
2.17913	89.5798
2.17365	89.6345
2.16819	89.6814
2.16277	89.8123
2.15737	89.6091
2.15199	89.7693
2.14665	89.8123
2.14133	89.9373
2.13603	89.7849
2.13077	89.8904
2.12552	89.7537
2.12031	89.8006
2.11512	90.0076
2.10995	89.6677
2.10481	89.7654
2.0997	89.8201
2.09461	89.9295
2.08954	89.824
2.0845	89.8357
2.07948	89.867
