Name: Lamprophyre
Type: Rocks
Class: Igneous
Subclass: Mafic
Particle Size: Solid
Sample No.: Lamproph.H1
Owner: JHU
Origin: from Spanish Peaks, Colorado, via Ward's Scientific (Cat. No. W-
Description: A very dark gray aphanitic rock weathering to a tan color.
Measurement: Directional (10 degree) hemispherical reflectance
X Units: Wavelength (micrometers)
Y Units: Reflectance (percent)
wavelength	value
14.0112	2.6639
13.7147	3.9197
13.4304	3.8198
13.1577	4.0886
12.8959	4.0428
12.6443	4.0566
12.4023	4.6886
12.1694	5.3044
11.945	6.0633
11.7289	7.0376
11.5203	8.0927
11.3191	9.266
11.1248	10.1327
10.937	10.9059
10.7555	11.1651
10.5799	11.2685
10.4099	11.4994
10.2454	11.5844
10.0859	11.8776
9.9313	12.6633
9.7814	12.8774
9.636	12.7141
9.4948	12.3898
9.3577	11.3674
9.2245	10.2834
9.095	10.1608
8.9691	9.7901
8.8467	8.8547
8.7275	8.0941
8.6116	7.6139
8.4986	7.0594
8.3886	6.2449
8.2814	4.635
8.1769	2.9182
8.075	2.171
7.9756	1.9158
7.8786	1.8278
7.784	1.8396
7.6916	1.861
7.6014	1.9315
7.5133	1.9976
7.4272	2.0897
7.343	2.1161
7.2607	2.2207
7.1803	2.2886
7.1016	2.388
7.0246	2.4579
6.9493	2.5059
6.8755	2.5462
6.8034	2.5844
6.7327	2.6574
6.6634	2.6948
6.5956	2.6836
6.5292	2.7403
6.464	2.7112
6.4002	2.7077
6.3376	2.7516
6.2762	2.7229
6.216	2.7774
6.157	2.7413
6.099	2.745
6.0421	2.7485
5.9863	2.7516
5.9315	2.8319
5.8777	2.9737
5.8249	3.1273
5.773	3.1779
5.722	3.2524
5.6719	3.3514
5.6227	3.4453
5.5744	3.4823
5.5268	3.5494
5.4801	3.5969
5.4341	3.6321
5.3889	3.6956
5.3445	3.7319
5.3008	3.7859
5.2578	3.8213
5.2154	3.8993
5.1738	3.9216
5.1328	3.9696
5.0925	4.0137
5.0528	4.0493
5.0137	4.1011
4.9752	4.1379
4.9373	4.173
4.9	4.2459
4.8632	4.3125
4.827	4.3296
4.7913	4.3781
4.7561	4.4489
4.7215	4.4702
4.6873	4.5304
4.6536	4.5712
4.6205	4.6397
4.5877	4.6933
4.5555	4.7213
4.5237	4.7868
4.4923	4.8276
4.4614	4.8714
4.4309	4.9038
4.4008	4.9116
4.3711	4.9605
4.3418	4.9875
4.3129	5.0388
4.2844	5.0885
4.2563	5.1253
4.2285	5.1441
4.2011	5.1912
4.174	5.2306
4.1473	5.2467
4.1209	5.2767
4.0949	5.3109
4.0692	5.3259
4.0438	5.3449
4.0187	5.3768
3.994	5.3958
3.9695	5.3829
3.9453	5.3909
3.9214	5.4176
3.8979	5.4135
3.8746	5.434
3.8515	5.452
3.8288	5.4372
3.8063	5.4358
3.7841	5.4302
3.7621	5.426
3.7404	5.4333
3.7189	5.4135
3.6977	5.3939
3.6767	5.392
3.656	5.37
3.6355	5.3468
3.6152	5.3494
3.5951	5.2945
3.5753	5.2751
3.5557	5.2615
3.5363	5.2195
3.5171	5.1108
3.4981	4.9509
3.4793	4.9831
3.4607	4.9624
3.4423	4.8825
3.4241	4.6683
3.4061	4.7114
3.3883	4.7704
3.3707	4.7639
3.3533	4.7981
3.336	4.7522
3.3189	4.7435
3.302	4.7194
3.2853	4.7004
3.2687	4.6114
3.2523	4.5951
3.2361	4.5631
3.22	4.5257
3.204	4.4943
3.1883	4.4343
3.1727	4.3842
3.1572	4.3188
3.1419	4.3143
3.1268	4.2703
3.1117	4.2075
3.0969	4.1948
3.0821	4.1449
3.0675	4.0683
3.0531	4.0512
3.0388	4.0814
3.0246	4.0355
3.0105	4.0507
2.9966	4.0223
2.9828	4.0156
2.9692	4.0064
2.9556	3.9443
2.9422	3.9564
2.9289	3.9893
2.9157	3.9701
2.9027	4.012
2.8897	3.9987
2.8769	4.0221
2.8642	3.9998
2.8516	4.1196
2.8391	4.0486
2.8267	4.0589
2.8144	4.167
2.8022	4.1735
2.7902	4.2047
2.7782	4.2668
2.7664	4.3404
2.7546	4.4161
2.7429	4.6613
2.7314	4.9594
2.7199	5.2254
2.7085	5.4551
2.6973	5.7546
2.6861	6.0966
2.675	6.2459
2.664	6.2789
2.6531	6.2864
2.6423	6.3187
2.6315	6.3684
2.6209	6.3501
2.6103	6.349
2.5999	6.34
2.5895	6.348
2.5792	6.352
2.569	6.3377
2.5588	6.3122
2.5487	6.2771
2.5388	6.2787
2.5289	6.2512
2.519	6.2906
2.5093	6.2555
2.4996	6.2911
2.49	6.3096
2.4805	6.301
2.471	6.3229
2.4616	6.3546
2.4523	6.368
2.4431	6.3677
2.4339	6.3319
2.4248	6.4141
2.4157	6.4132
2.4068	6.3872
2.3979	6.3206
2.389	6.4164
2.3802	6.4418
2.3715	6.3874
2.3629	6.4324
2.3543	6.4402
2.3458	6.4083
2.3373	6.3654
2.3289	6.3478
2.3206	6.4088
2.3123	6.4378
2.3041	6.3717
2.2959	6.3682
2.2878	6.3989
2.2798	6.4356
2.2718	6.4188
2.2638	6.4504
2.2559	6.5008
2.2481	6.4376
2.2403	6.4444
2.2326	6.494
2.225	6.4338
2.2173	6.476
2.2098	6.4985
2.2023	6.4495
2.1948	6.4713
2.1874	6.4978
2.18	6.5435
2.1727	6.5171
2.1655	6.4725
2.1583	6.4839
2.1511	6.5808
2.144	6.5093
2.1369	6.6013
2.1299	6.5883
2.1229	6.5728
2.116	6.5623
2.1091	6.5351
2.1023	6.495
2.0955	6.6013
2.0887	6.5833
2.082	6.6363
2.06	6.7804
2.028	6.8463
1.996	6.9535
1.964	6.9075
1.932	6.8426
1.9	7.0366
1.868	7.069
1.836	7.0643
1.804	7.187
1.772	7.1155
1.74	7.1072
1.708	7.0309
1.676	7.0624
1.644	7.0107
1.612	7.1948
1.58	7.081
1.548	7.1496
1.516	7.108
1.484	7.1037
1.452	7.1709
1.42	7.0865
1.388	7.2106
1.356	7.086
1.324	7.1832
1.292	7.0555
1.26	7.2862
1.228	7.1309
1.196	6.9697
1.164	7.0022
1.132	7.1064
1.1	7.0449
1.068	7.169
1.036	7.1849
1.004	7.2323
0.972	7.28
0.94	7.3462
0.908	7.503
0.876	7.7045
0.844	7.8137
0.812	8.0374
0.795	7.8199
0.787	8.0377
0.779	8.0974
0.771	8.1892
0.763	7.9691
0.755	8.0204
0.747	8.1199
0.739	8.3187
0.731	8.0379
0.723	7.9388
0.715	8.1577
0.707	8.1232
0.699	8.174
0.691	8.3148
0.683	8.2938
0.675	8.2574
0.667	8.221
0.659	8.2549
0.651	8.3516
0.643	8.3546
0.635	8.4846
0.627	8.3228
0.619	8.6692
0.611	8.4207
0.603	8.4207
0.595	8.4182
0.587	8.2877
0.579	8.4862
0.571	8.5834
0.563	8.5926
0.555	8.2545
0.547	8.506
0.539	8.325
0.531	8.2653
0.523	8.3745
0.515	8.5553
0.507	8.5219
0.499	8.2335
0.491	8.4289
0.483	8.4445
0.475	8.2037
0.467	8.417
0.459	8.1806
0.451	8.4293
0.443	8.2119
0.435	8.1973
0.427	8.2769
0.419	8.1249
0.411	7.9271
0.403	7.5143
