Name: Ilmenite Fe+2TiO3
Type: Mineral
Class: Oxides
Subclass: (Hematite Group)
Particle Size: Fine  (0-74 micrometers)
Sample No.: ilmenite.1
Owner: JHU
Wavelength Range: IR
Origin: Ilmen Mountains, Urals, USSR via the Smithsonian (sample no.
Description: The sample consisted of two large and several smaller
Measurement: Bidirectional reflectance
X Units: Wavelength (micrometers)
Y Units: Reflectance (percent)
wavelength	value
25.0442	2.6077
24.3388	2.7124
23.6719	3.0015
23.0407	3.0471
22.4422	2.9756
21.8741	2.8047
21.334	2.7034
20.8199	2.7256
20.33	2.8152
19.8627	2.9497
19.4163	3.1152
18.9896	3.1868
18.5812	3.1919
18.19	3.1321
17.815	3.0598
17.4551	2.9243
17.1094	2.7527
16.7772	2.552
16.4576	2.4265
16.15	2.4067
15.8537	2.4319
15.568	2.4385
15.2925	2.4597
15.0265	2.4529
14.7697	2.404
14.5214	2.3066
14.2814	2.1777
14.0492	2.0034
13.8244	1.8137
13.6067	1.5168
13.3957	1.1379
13.1912	0.7976
12.9929	0.6267
12.8004	0.5481
12.6135	0.5571
12.432	0.6265
12.2557	0.7517
12.0843	0.8796
11.9176	1.0349
11.7555	1.1597
11.5977	1.2849
11.444	1.4167
11.2944	1.5344
11.1487	1.6489
11.0067	1.7444
10.8682	1.8415
10.7332	1.9414
10.6015	2.0276
10.473	2.0867
10.3476	2.1362
10.2251	2.1504
10.1056	2.1562
9.98873	2.1768
9.87458	2.2043
9.763	2.2563
9.65392	2.3281
9.54724	2.4114
9.44291	2.4822
9.34082	2.5427
9.24091	2.5962
9.14312	2.6389
9.04739	2.6948
8.95363	2.7427
8.8618	2.8054
8.77183	2.8774
8.68368	2.937
8.59727	2.9863
8.51257	3.0276
8.42951	3.073
8.34807	3.1169
8.26819	3.1621
8.18981	3.2131
8.11292	3.2568
8.03745	3.2888
7.96337	3.3162
7.89064	3.3364
7.81924	3.363
7.74911	3.3872
7.68023	3.4062
7.61256	3.4233
7.54608	3.4412
7.48074	3.4643
7.41653	3.477
7.35341	3.4905
7.29136	3.5059
7.23034	3.5134
7.17033	3.5137
7.11132	3.5093
7.05327	3.5037
6.99616	3.5256
6.93996	3.5705
6.88467	3.6135
6.83024	3.6462
6.77667	3.6921
6.72393	3.7244
6.67201	3.7468
6.62089	3.7563
6.57054	3.7537
6.52095	3.7583
6.4721	3.759
6.42398	3.7617
6.37657	3.7627
6.32986	3.7595
6.28382	3.7527
6.23845	3.7475
6.19373	3.7292
6.14965	3.7119
6.10619	3.7058
6.06334	3.6973
6.02109	3.6931
5.97942	3.6975
5.93832	3.6973
5.89778	3.7104
5.8578	3.7309
5.81835	3.7441
5.77943	3.75
5.74103	3.7556
5.70314	3.7578
5.66574	3.7634
5.62883	3.7654
5.5924	3.7671
5.55644	3.7644
5.52093	3.7634
5.48588	3.7605
5.45127	3.7588
5.41709	3.7527
5.38334	3.7563
5.35	3.749
5.31708	3.7468
5.28456	3.7361
5.25243	3.7344
5.2207	3.7268
5.18934	3.7165
5.15836	3.709
5.12775	3.7002
5.09749	3.6948
5.0676	3.6872
5.03805	3.6887
5.00884	3.6748
4.97998	3.668
4.95144	3.6579
4.92322	3.6479
4.89533	3.644
4.86775	3.6321
4.84048	3.6365
4.81351	3.6206
4.78684	3.6099
4.76047	3.6081
4.73439	3.5945
4.70859	3.5874
4.68306	3.5769
4.65782	3.5701
4.63284	3.5549
4.60814	3.5517
4.58369	3.5434
4.5595	3.5308
4.53557	3.5154
4.51188	3.5015
4.48845	3.4873
4.46525	3.4726
4.44229	3.4582
4.41957	3.448
4.39708	3.439
4.37481	3.417
4.35277	3.407
4.33096	3.3957
4.30935	3.3777
4.28797	3.3623
4.26679	3.3486
4.24583	3.3381
4.22506	3.3259
4.2045	3.3227
4.18414	3.3039
4.16398	3.2934
4.14401	3.2786
4.12423	3.2627
4.10464	3.2561
4.08523	3.2375
4.066	3.2244
4.04696	3.2124
4.02809	3.1948
4.0094	3.1826
3.99088	3.1672
3.97253	3.1484
3.95435	3.1301
3.93634	3.1162
3.91848	3.1086
3.90079	3.0935
3.88326	3.0742
3.86589	3.0583
3.84867	3.0466
3.8316	3.0237
3.81468	3.0061
3.79791	2.9936
3.78129	2.9736
3.76482	2.9634
3.74848	2.9485
3.73229	2.9336
3.71624	2.9119
3.70032	2.8955
3.68454	2.8765
3.6689	2.8682
3.65338	2.8479
3.638	2.8254
3.62275	2.8125
3.60762	2.7993
3.59262	2.7788
3.57775	2.7622
3.56299	2.7578
3.54836	2.7314
3.53385	2.7165
3.51945	2.6872
3.50517	2.6614
3.49101	2.6453
3.47696	2.6301
3.46303	2.623
3.4492	2.5991
3.43549	2.5786
3.42188	2.5371
3.40838	2.531
3.39499	2.5249
3.38171	2.5132
3.36852	2.5041
3.35544	2.4929
3.34246	2.4836
3.32958	2.4705
3.3168	2.4531
3.30411	2.4368
3.29153	2.4194
3.27903	2.3928
3.26664	2.3862
3.25433	2.373
3.24212	2.3523
3.23	2.333
3.21797	2.3201
3.20603	2.3057
3.19418	2.2954
3.18241	2.2725
3.17074	2.2478
3.15914	2.2407
3.14763	2.2319
3.13621	2.2183
3.12487	2.2029
3.11361	2.1963
3.10243	2.1794
3.09133	2.1614
3.0803	2.145
3.06936	2.1352
3.0585	2.124
3.04771	2.1177
3.037	2.1074
3.02636	2.1001
3.0158	2.0747
3.00531	2.0727
2.99489	2.0684
2.98454	2.0405
2.97427	2.0466
2.96407	2.0134
2.95393	2.0068
2.94387	1.989
2.93387	1.9978
2.92394	1.9861
2.91408	1.98
2.90429	1.9722
2.89456	1.9717
2.88489	1.9661
2.87529	1.9412
2.86576	1.9509
2.85628	1.9292
2.84687	1.9145
2.83752	1.8987
2.82823	1.8877
2.81901	1.8711
2.80984	1.8628
2.80073	1.8599
2.79168	1.852
2.78269	1.8581
2.77376	1.8538
2.76488	1.8672
2.75606	1.8584
2.7473	1.8581
2.73859	1.853
2.72994	1.8477
2.72134	1.8332
2.7128	1.833
2.70431	1.8113
2.69587	1.8171
2.68748	1.8279
2.67915	1.8249
2.67087	1.8213
2.66264	1.8147
2.65446	1.8
2.64633	1.7959
2.63825	1.7878
2.63021	1.7773
2.62223	1.7644
2.6143	1.7707
2.60641	1.7485
2.59857	1.7519
2.59078	1.7458
2.58304	1.7405
2.57534	1.7246
2.56768	1.71
2.56008	1.7078
2.55251	1.718
2.54499	1.7095
2.53752	1.6953
2.53009	1.6848
2.5227	1.676
2.51536	1.6645
2.50806	1.6621
2.5008	1.6448
2.49358	1.6499
2.4864	1.6372
2.47927	1.6355
2.47218	1.6306
2.46512	1.6086
2.45811	1.6028
2.45114	1.6003
2.4442	1.6016
2.43731	1.5918
2.43045	1.5991
2.42363	1.5745
2.41685	1.5762
2.41011	1.5666
2.40341	1.5376
2.39674	1.5615
2.39011	1.5535
2.38352	1.5488
2.37696	1.529
2.37044	1.5373
2.36395	1.5078
2.35751	1.5144
2.35109	1.5212
2.34471	1.5093
2.33836	1.5029
2.33205	1.4731
2.32578	1.5
2.31953	1.4902
2.31332	1.4934
2.30714	1.4956
2.301	1.4734
2.29489	1.4744
2.28881	1.4607
2.28276	1.4663
2.27675	1.4509
2.27076	1.4582
2.26481	1.4451
2.25889	1.4473
2.253	1.4526
2.24714	1.4365
2.24131	1.4673
2.23551	1.4607
2.22974	1.4402
2.224	1.4326
2.21829	1.4294
2.21261	1.4358
2.20696	1.4331
2.20134	1.4226
2.19574	1.4248
2.19018	1.4414
2.18464	1.4185
2.17913	1.4155
2.17365	1.4394
2.16819	1.4094
2.16277	1.4033
2.15737	1.4043
2.15199	1.4175
2.14665	1.3987
2.14133	1.4043
2.13603	1.4207
2.13077	1.4228
2.12552	1.3945
2.12031	1.3984
2.11512	1.4194
2.10995	1.3677
2.10481	1.3896
2.0997	1.3838
2.09461	1.4048
2.08954	1.4082
2.0845	1.3652
2.07948	1.4048
