Name: Acmite NaFe+3 Si2O6
Type: Mineral
Class: Silicates
Subclass: Inosilicates (Pyroxene Group - single chain)
Particle Size: Fine (less than 2 Micrometers)
Owner: JHU
Wavelength Range: IR
Origin: Narsarsuk, Greenland via the Smithsonian (sample no. NMNH
Description: The sample consisted of black radiating acicular crystals
Measurement: Transmission
X Units: Wavelength (micrometers)
Y Units: Transmittance (percent)
wavelength	value
25.044	52.328
24.339	67.3436
23.672	68.7029
23.041	58.0467
22.442	39.7929
21.874	25.7109
21.334	23.4453
20.82	32.8769
20.33	47.1346
19.863	43.8983
19.416	60.5741
18.99	70.3944
18.581	65.6844
18.19	58.8416
17.815	49.5741
17.455	54.6258
17.109	73.3592
16.777	82.1424
16.458	85.2635
16.15	85.5789
15.854	81.6414
15.568	63.869
15.292	76.3797
15.027	86.6111
14.77	88.3416
14.521	88.8093
14.281	88.9685
14.049	88.4431
13.824	87.5217
13.607	84.1931
13.396	88.2893
13.191	88.5628
12.993	88.0471
12.8	87.3499
12.614	86.8084
12.432	85.1897
12.256	82.7498
12.084	78.9026
11.918	74.4007
11.755	65.2664
11.598	59.7464
11.444	59.9828
11.294	53.2313
11.149	43.5722
11.007	34.3886
10.868	27.2719
10.733	22.3637
10.602	19.791
10.473	15.9521
10.348	14.27
10.225	19.9931
10.106	27.5629
9.989	25.6225
9.875	19.3657
9.763	19.6015
9.654	21.6542
9.547	22.0693
9.443	22.4453
9.341	22.4599
9.241	23.8539
9.143	29.0429
9.047	40.018
8.954	52.7445
8.862	61.5204
8.772	68.0648
8.684	74.0291
8.597	77.7034
8.513	80.2635
8.43	82.7991
8.348	85.1309
8.268	87.4131
8.19	89.1279
8.113	90.3953
8.037	91.3623
7.963	92.0379
7.891	92.4431
7.819	92.9697
7.749	93.5674
7.68	93.8596
7.613	94.0469
7.546	94.2175
7.481	94.3965
7.417	94.4622
7.353	94.6707
7.291	94.7297
7.23	94.7275
7.17	94.6863
7.111	94.5869
7.053	94.2673
6.996	93.917
6.94	93.9382
6.885	94.2234
6.83	94.7178
6.777	95.1621
6.724	95.5527
6.672	95.8572
6.621	95.9753
6.571	96.2012
6.521	96.2634
6.472	96.1484
6.424	95.9812
6.377	95.7273
6.33	95.3181
6.284	94.8477
6.238	93.7969
6.194	92.7188
6.15	92.7029
6.106	92.948
6.063	93.8044
6.021	94.7527
5.979	95.0723
5.938	95.8254
5.898	96.1025
5.858	96.3633
5.818	96.4368
5.779	96.3857
5.741	96.5615
5.703	96.6103
5.666	96.655
5.629	96.7041
5.592	96.791
5.556	97.0261
5.521	97.1599
5.486	97.2029
5.451	97.197
5.417	97.156
5.383	97.1191
5.35	97.115
5.317	97.0869
5.285	97.0381
5.252	97.0459
5.221	96.9512
5.189	97.001
5.158	97.0127
5.128	97.0144
5.097	97.0088
5.068	96.9648
5.038	96.8972
5.009	96.8606
4.98	96.9031
4.951	96.8669
4.923	96.8284
4.895	96.8044
4.868	96.7537
4.84	96.8186
4.814	96.7478
4.787	96.7454
4.76	96.7385
4.734	96.7175
4.709	96.6726
4.683	96.6785
4.658	96.6389
4.633	96.6707
4.608	96.6155
4.584	96.6018
4.56	96.5647
4.536	96.5837
4.512	96.4475
4.488	96.428
4.465	96.4031
4.442	96.2654
4.42	96.2991
4.397	96.2249
4.375	96.1775
4.353	96.1057
4.331	96.1023
4.309	96.0593
4.288	95.968
4.267	95.9148
4.246	95.9163
4.225	95.8816
4.205	95.782
4.184	95.7126
4.164	95.7019
4.144	95.6384
4.124	95.5515
4.105	95.5159
4.085	95.4319
4.066	95.3831
4.047	95.321
4.028	95.2214
4.009	95.1541
3.991	95.0525
3.973	94.9275
3.954	94.9314
3.936	94.9255
3.918	94.9729
3.901	94.7898
3.883	94.7444
3.866	94.5691
3.849	94.5242
3.832	94.4216
3.815	94.3767
3.798	94.2751
3.781	94.2673
3.765	94.1853
3.748	94.0525
3.732	93.926
3.716	93.8962
3.7	93.7263
3.685	93.7151
3.669	93.553
3.653	93.5681
3.638	93.4529
3.623	93.3362
3.608	93.1404
3.593	93.0974
3.578	92.9646
3.563	93.0017
3.548	92.8298
3.534	92.6389
3.519	92.5315
3.505	92.1892
3.491	92.2683
3.477	92.1077
3.463	91.9959
3.449	91.9089
3.435	91.5999
3.422	91.3621
3.408	91.2966
3.395	91.3381
3.382	91.1882
3.369	91.2576
3.355	91.178
3.342	91.0335
3.33	90.9509
3.317	90.8045
3.304	90.6604
3.292	90.5349
3.279	90.3943
3.267	90.2703
3.254	90.1023
3.242	89.9578
3.23	89.6453
3.218	89.5232
3.206	89.3445
3.194	89.1375
3.182	89.0213
3.171	88.7918
3.159	88.5486
3.148	88.1677
3.136	88.0232
3.125	87.7097
3.114	87.4646
3.102	87.1638
3.091	86.9529
3.08	86.6931
3.069	86.4314
3.058	86.1892
3.048	86.0525
3.037	85.617
3.026	85.2615
3.016	84.7586
3.005	84.1961
2.995	83.4549
2.985	82.7869
2.974	81.7127
2.964	80.492
2.954	79.7732
2.944	79.0018
2.934	78.451
2.924	77.9314
2.914	77.6951
2.904	77.7342
2.895	78.0867
2.885	78.6014
2.875	79.1726
2.866	79.8103
2.856	80.3357
2.847	81.033
2.838	81.4099
2.828	81.7264
2.819	82.3006
2.81	82.6765
2.801	83.283
2.792	84.1873
2.783	84.8719
2.774	85.6687
2.765	86.2781
2.756	86.867
2.747	87.4685
2.739	87.8201
2.73	88.1062
2.721	88.2224
2.713	88.0388
2.704	88.2429
2.696	88.1843
2.687	88.2351
2.679	88.2537
2.671	88.0242
2.663	87.9802
2.654	87.8552
2.646	87.783
2.638	87.7381
2.63	87.4959
2.622	87.5291
2.614	87.5408
2.606	87.3631
2.599	87.283
2.591	87.4549
2.583	87.2029
2.575	87.0486
2.568	86.906
2.56	86.9236
2.553	86.7517
2.545	86.7049
2.538	86.8045
2.53	86.5584
2.523	86.5623
2.515	86.5037
2.508	86.406
2.501	86.3767
2.494	86.2654
2.486	86.2049
2.479	86.1248
2.472	85.9763
2.465	85.906
2.458	85.8767
2.451	85.9842
2.444	85.6795
2.437	85.7381
2.43	85.617
2.424	85.4959
2.417	85.4549
2.41	85.4842
2.403	85.4529
2.397	85.2029
2.39	85.1053
2.384	85.322
2.377	85.0877
2.37	84.9842
2.364	85.0271
2.358	84.7127
2.351	84.531
2.345	84.697
2.338	84.5857
2.332	84.6951
2.326	84.4138
2.32	84.3455
2.313	84.4627
2.307	84.408
2.301	83.9392
2.295	84.2674
2.289	84.2576
2.283	83.9138
2.277	83.8982
2.271	83.8123
2.265	83.8357
2.259	83.7381
2.253	83.742
2.247	83.5193
2.241	83.3826
2.236	83.7967
2.23	83.1912
2.224	83.1443
2.218	83.281
2.213	82.992
2.207	83.0076
2.201	83.3357
2.196	83.0115
2.19	83.0193
2.185	82.6834
2.179	82.781
2.174	82.8514
2.168	82.5506
2.163	82.7654
2.157	82.8123
2.152	82.574
2.147	82.3006
2.141	82.4412
2.136	82.0193
2.131	82.1287
2.126	81.8514
2.12	82.2107
2.115	82.1482
2.11	81.6717
2.105	81.4764
2.1	81.6717
2.095	81.8123
2.09	81.6873
2.085	82.0037
2.079	81.2224
