Name: Sepiolite Mg4Si6O15(OH)2.6H2)
Type: Mineral
Class: Silicates
Subclass: Phyllosilicates (Sheet silicates); Sepiolite Group
Particle Size: Fine  (Less than 2  Micrometers)
Sample No.: sepiolite.1
Owner: JHU
Wavelength Range: IR
Origin: Two Crows, Nev., USA via Hunt and Salisbury Collection #CMS
Description: White, earthy clay.  Sepiolite plus a small amount of
Measurement: Transmission
X Units: Wavelength (micrometers)
Y Units: Transmittance (percent)
wavelength	value
25.0442	53.0077
24.3388	47.2362
23.6719	35.3944
23.0407	28.5585
22.4422	24.8984
21.8741	26.6659
21.334	16.7587
20.8199	16.4189
20.33	22.5654
19.8627	24.8242
19.4163	29.9902
18.9896	35.6469
18.5812	40.3344
18.19	49.5409
17.815	56.3377
17.4551	62.0203
17.1094	65.8719
16.7772	67.6092
16.4576	69.6932
16.15	70.702
15.8537	71.4017
15.568	69.1737
15.2925	61.6668
15.0265	66.6048
14.7697	68.6717
14.5214	66.265
14.2814	68.9124
14.0492	76.4158
13.8244	79.6514
13.6067	81.6426
13.3957	83.284
13.1912	83.7696
12.9929	82.2989
12.8004	79.9131
12.6135	80.9229
12.432	83.5525
12.2557	84.9073
12.0843	85.4873
11.9176	85.0252
11.7555	83.324
11.5977	80.6446
11.444	77.9144
11.2944	76.638
11.1487	75.7908
11.0067	73.5452
10.8682	69.7606
10.7332	64.0228
10.6015	55.3675
10.473	42.2931
10.3476	26.8229
10.2251	17.3769
10.1056	16.9174
9.98873	17.3195
9.87458	11.7072
9.763	7.093
9.65392	6.5415
9.54724	10.8352
9.44291	17.6506
9.34082	18.7412
9.24091	20.4406
9.14312	27.621
9.04739	28.7817
8.95363	32.9076
8.8618	38.7978
8.77183	43.837
8.68368	48.5233
8.59727	52.0082
8.51257	52.413
8.42951	53.2191
8.34807	54.7113
8.26819	59.806
8.18981	64.5369
8.11292	68.1385
8.03745	71.0733
7.96337	73.5589
7.89064	75.4246
7.81924	76.7181
7.74911	77.7361
7.68023	78.5115
7.61256	79.2254
7.54608	79.9812
7.48074	80.427
7.41653	80.8035
7.35341	81.0144
7.29136	81.2713
7.23034	80.6307
7.17033	81.4627
7.11132	81.5227
7.05327	82.0545
6.99616	82.554
6.93996	83.1736
6.88467	83.481
6.83024	83.7122
6.77667	84.052
6.72393	84.4983
6.67201	84.8557
6.62089	85.1428
6.57054	85.4002
6.52095	85.6004
6.4721	85.7434
6.42398	85.9492
6.37657	85.897
6.32986	85.4956
6.28382	84.3792
6.23845	80.4695
6.19373	64.7767
6.14965	61.305
6.10619	69.1151
6.06334	73.3231
6.02109	77.367
5.97942	81.3328
5.93832	83.0823
5.89778	84.0467
5.8578	84.7503
5.81835	85.4705
5.77943	85.7483
5.74103	86.055
5.70314	86.4138
5.66574	86.5979
5.62883	86.7478
5.5924	86.7517
5.55644	86.742
5.52093	86.907
5.48588	87.0642
5.45127	87.2193
5.41709	87.4441
5.38334	87.3601
5.35	87.5471
5.31708	87.53
5.28456	87.6804
5.25243	87.7024
5.2207	87.801
5.18934	87.8093
5.15836	87.8635
5.12775	87.8972
5.09749	87.97
5.0676	88.0178
5.03805	88.138
5.00884	88.2141
4.97998	88.2403
4.95144	88.284
4.92322	88.2534
4.89533	88.2903
4.86775	88.2627
4.84048	88.1321
4.81351	88.3172
4.78684	88.2857
4.76047	88.2818
4.73439	88.3067
4.70859	88.3111
4.68306	88.3308
4.65782	88.366
4.63284	88.4317
4.60814	88.521
4.58369	88.398
4.5595	88.4146
4.53557	88.4673
4.51188	88.4368
4.48845	88.4661
4.46525	88.3801
4.44229	88.419
4.41957	88.541
4.39708	88.481
4.37481	88.5662
4.35277	88.5191
4.33096	88.5383
4.30935	88.4746
4.28797	88.5432
4.26679	88.5318
4.24583	88.5654
4.22506	88.6035
4.2045	88.6309
4.18414	88.6477
4.16398	88.6424
4.14401	88.6289
4.12423	88.6253
4.10464	88.5823
4.08523	88.5999
4.066	88.5235
4.04696	88.501
4.02809	88.4822
4.0094	88.4326
3.99088	88.2932
3.97253	88.2434
3.95435	88.2727
3.93634	88.3782
3.91848	88.3484
3.90079	88.3313
3.88326	88.2363
3.86589	88.1878
3.84867	88.1477
3.8316	88.1038
3.81468	88.1211
3.79791	88.1033
3.78129	87.9961
3.76482	87.9671
3.74848	87.9151
3.73229	87.8587
3.71624	87.8145
3.70032	87.5896
3.68454	87.572
3.6689	87.5098
3.65338	87.419
3.638	87.3425
3.62275	87.1482
3.60762	87.1463
3.59262	87.0371
3.57775	86.8865
3.56299	86.6717
3.54836	86.5965
3.53385	86.4854
3.51945	86.2508
3.50517	85.9466
3.49101	85.8418
3.47696	85.6253
3.46303	85.5271
3.4492	85.3721
3.43549	85.0935
3.42188	84.8526
3.40838	84.3916
3.39499	84.4158
3.38171	84.1858
3.36852	84.1416
3.35544	83.8086
3.34246	83.626
3.32958	83.2654
3.3168	82.9649
3.30411	82.74
3.29153	82.3828
3.27903	81.8797
3.26664	81.4092
3.25433	80.8308
3.24212	80.4617
3.23	79.7517
3.21797	79.1602
3.20603	78.4893
3.19418	77.7129
3.18241	77.1346
3.17074	76.2078
3.15914	75.3689
3.14763	74.3167
3.13621	73.1795
3.12487	72.2127
3.11361	71.0887
3.10243	70.324
3.09133	69.4578
3.0803	68.6224
3.06936	68.0023
3.0585	67.1395
3.04771	66.4788
3.037	65.5531
3.02636	64.575
3.0158	63.4285
3.00531	62.2879
2.99489	61.2679
2.98454	60.0072
2.97427	58.7479
2.96407	57.7176
2.95393	56.6761
2.94387	55.8211
2.93387	55.1542
2.92394	54.8348
2.91408	54.7079
2.90429	54.8597
2.89456	54.9881
2.88489	54.93
2.87529	54.5868
2.86576	53.9593
2.85628	53.1722
2.84687	52.3773
2.83752	51.9198
2.82823	52.0433
2.81901	52.5174
2.80984	53.4046
2.80073	54.7875
2.79168	56.3221
2.78269	57.5116
2.77376	58.2694
2.76488	59.1175
2.75606	60.2323
2.7473	62.661
2.73859	66.5452
2.72994	69.6346
2.72134	69.0985
2.7128	68.8104
2.70431	73.4612
2.69587	74.5862
2.68748	74.6951
2.67915	75.8729
2.67087	76.389
2.66264	76.366
2.65446	76.5882
2.64633	76.6775
2.63825	76.6932
2.63021	76.8519
2.62223	76.7049
2.6143	76.9163
2.60641	76.7879
2.59857	76.7537
2.59078	76.6639
2.58304	76.7952
2.57534	76.5628
2.56768	76.4168
2.56008	76.6463
2.55251	76.4695
2.54499	76.1717
2.53752	76.2547
2.53009	76.2938
2.5227	75.993
2.51536	76.1639
2.50806	76.1541
2.5008	76.0027
2.49358	75.9373
2.4864	75.8162
2.47927	75.9109
2.47218	75.7811
2.46512	75.6844
2.45811	75.7039
2.45114	75.6229
2.4442	75.2869
2.43731	75.3299
2.43045	75.2772
2.42363	75.115
2.41685	75.1697
2.41011	75.3201
2.40341	74.9783
2.39674	75.0369
2.39011	74.9998
2.38352	75.0242
2.37696	74.7273
2.37044	74.8826
2.36395	74.91
2.35751	74.6639
2.35109	74.9295
2.34471	74.5154
2.33836	74.5877
2.33205	74.2313
2.32578	74.3514
2.31953	74.2772
2.31332	74.3904
2.30714	74.1795
2.301	74.0838
2.29489	74.1531
2.28881	74.2156
2.28276	74.0477
2.27675	74.3289
2.27076	73.8299
2.26481	74.4119
2.25889	73.7654
2.253	74.1102
2.24714	73.8484
2.24131	73.743
2.23551	73.8172
2.22974	73.9432
2.224	73.5047
2.21829	73.8133
2.21261	73.5516
2.20696	73.8533
2.20134	73.5701
2.19574	73.5936
2.19018	73.9852
2.18464	73.5984
2.17913	73.3787
2.17365	73.8123
2.16819	73.7752
2.16277	73.494
2.15737	73.7166
2.15199	73.6365
2.14665	72.9627
2.14133	73.3631
2.13603	74.0115
2.13077	73.6561
2.12552	73.6424
2.12031	73.3768
2.11512	73.6404
2.10995	73.5643
2.10481	73.4471
2.0997	73.7049
2.09461	73.8357
2.08954	73.2576
2.0845	73.9158
2.07948	73.6287
