Name: Epidote Ca2(Al,Fe+3)3(SiO4)3(OH)
Type: Mineral
Class: Silicates
Subclass: Soroosilicates  (Epidote Group)
Particle Size: Coarse  (74-250 Micrometers)
Sample No.: epidote.1
Owner: JHU
Wavelength Range: IR
Origin: Donated by Bruce Hemingway;  Sample from Prince of Wales
Description: The sample consisted of several deep green epidote
Measurement: Bidirectional reflectance
X Units: Wavelength (micrometers)
Y Units: Reflectance (percent)
wavelength	value
25.0442	8.8281
24.3388	7.1526
23.6719	5.5002
23.0407	5.6059
22.4422	4.4995
21.8741	4.6543
21.334	4.2646
20.8199	3.7805
20.33	4.3904
19.8627	6.1369
19.4163	7.5857
18.9896	7.2468
18.5812	5.5373
18.19	6.0708
17.815	7.4407
17.4551	7.0481
17.1094	5.1235
16.7772	3.4685
16.4576	2.9082
16.15	2.4529
15.8537	3.2246
15.568	4.519
15.2925	5.5964
15.0265	4.6724
14.7697	3.0459
14.5214	2.9717
14.2814	3.1223
14.0492	2.728
13.8244	1.9436
13.6067	1.7085
13.3957	2.0144
13.1912	2.2517
12.9929	2.4543
12.8004	2.7017
12.6135	2.8618
12.432	3.1077
12.2557	3.4895
12.0843	3.9394
11.9176	4.0041
11.7555	4.2285
11.5977	4.5644
11.444	5.3047
11.2944	6.8733
11.1487	6.5727
11.0067	6.2046
10.8682	5.4612
10.7332	6.1763
10.6015	8.4448
10.473	11.0683
10.3476	11.2019
10.2251	9.2507
10.1056	8.5593
9.98873	5.241
9.87458	1.675
9.763	2.0312
9.65392	4.9924
9.54724	5.5974
9.44291	6.0705
9.34082	5.771
9.24091	6.0752
9.14312	5.7099
9.04739	5.3542
8.95363	5.1018
8.8618	4.4592
8.77183	3.9543
8.68368	2.5059
8.59727	1.2649
8.51257	0.5735
8.42951	0.5181
8.34807	0.6467
8.26819	0.8057
8.18981	0.9495
8.11292	1.0752
8.03745	1.1797
7.96337	1.2747
7.89064	1.3845
7.81924	1.5017
7.74911	1.6604
7.68023	1.8533
7.61256	2.0415
7.54608	2.1877
7.48074	2.3149
7.41653	2.4448
7.35341	2.574
7.29136	2.6802
7.23034	2.7429
7.17033	2.7537
7.11132	2.8318
7.05327	2.978
6.99616	3.0918
6.93996	3.1343
6.88467	3.1758
6.83024	3.2251
6.77667	3.2891
6.72393	3.3369
6.67201	3.3288
6.62089	3.3406
6.57054	3.3823
6.52095	3.458
6.4721	3.5515
6.42398	3.7239
6.37657	3.8428
6.32986	3.8528
6.28382	3.8242
6.23845	3.8359
6.19373	3.9031
6.14965	3.8054
6.10619	3.6111
6.06334	3.4116
6.02109	3.0662
5.97942	2.6487
5.93832	2.4434
5.89778	2.4944
5.8578	2.5786
5.81835	2.6169
5.77943	2.5745
5.74103	2.5395
5.70314	2.561
5.66574	2.5625
5.62883	2.6372
5.5924	2.7956
5.55644	3.1038
5.52093	3.4416
5.48588	3.7068
5.45127	3.9333
5.41709	4.0195
5.38334	4.0508
5.35	3.9643
5.31708	3.9626
5.28456	3.8513
5.25243	3.6558
5.2207	3.5767
5.18934	3.762
5.15836	4.1345
5.12775	4.2295
5.09749	4.1611
5.0676	4.1538
5.03805	4.0945
5.00884	4.0264
4.97998	3.6621
4.95144	3.5503
4.92322	3.6479
4.89533	3.7136
4.86775	4.1504
4.84048	4.4661
4.81351	4.6113
4.78684	5.0644
4.76047	5.8142
4.73439	6.2939
4.70859	6.3264
4.68306	6.4719
4.65782	6.6042
4.63284	6.4722
4.60814	6.4253
4.58369	7.0825
4.5595	7.915
4.53557	8.6333
4.51188	9.2732
4.48845	9.8901
4.46525	10.3286
4.44229	10.594
4.41957	10.8103
4.39708	10.9775
4.37481	11.1382
4.35277	11.2705
4.33096	11.3633
4.30935	11.4138
4.28797	11.4514
4.26679	11.5022
4.24583	11.5595
4.22506	11.6584
4.2045	11.7707
4.18414	11.8835
4.16398	11.978
4.14401	12.0205
4.12423	12.0652
4.10464	12.0822
4.08523	12.0749
4.066	12.0534
4.04696	11.9851
4.02809	11.893
4.0094	11.6728
3.99088	11.279
3.97253	11.3523
3.95435	11.6303
3.93634	11.8774
3.91848	12.08
3.90079	12.1948
3.88326	12.2348
3.86589	12.2407
3.84867	12.2549
3.8316	12.2653
3.81468	12.2746
3.79791	12.2746
3.78129	12.2927
3.76482	12.2744
3.74848	12.1967
3.73229	12.0913
3.71624	11.9409
3.70032	11.8452
3.68454	11.7693
3.6689	11.7317
3.65338	11.7981
3.638	11.8156
3.62275	11.7783
3.60762	11.6948
3.59262	11.5639
3.57775	11.4729
3.56299	11.3664
3.54836	11.2431
3.53385	11.0891
3.51945	10.9275
3.50517	10.7048
3.49101	10.4226
3.47696	10.1299
3.46303	9.9267
3.4492	9.7339
3.43549	9.4907
3.42188	9.2273
3.40838	9.094
3.39499	9.1057
3.38171	9.1506
3.36852	9.0342
3.35544	8.7873
3.34246	8.5486
3.32958	8.2903
3.3168	8.0583
3.30411	7.8425
3.29153	7.5461
3.27903	7.1084
3.26664	6.7058
3.25433	6.4836
3.24212	6.3354
3.23	6.178
3.21797	5.9404
3.20603	5.6357
3.19418	5.3374
3.18241	5.0066
3.17074	4.7427
3.15914	4.5974
3.14763	4.479
3.13621	4.3174
3.12487	4.093
3.11361	3.8276
3.10243	3.5798
3.09133	3.4197
3.0803	3.2969
3.06936	3.2275
3.0585	3.1919
3.04771	3.1641
3.037	3.1262
3.02636	3.0889
3.0158	3.0591
3.00531	2.9873
2.99489	2.8855
2.98454	2.7632
2.97427	2.7661
2.96407	2.7183
2.95393	2.5571
2.94387	2.4951
2.93387	2.5989
2.92394	2.75
2.91408	2.8862
2.90429	2.9978
2.89456	3.0161
2.88489	3.0762
2.87529	3.123
2.86576	3.2392
2.85628	3.3967
2.84687	3.6267
2.83752	3.977
2.82823	4.4402
2.81901	4.8015
2.80984	5.3567
2.80073	5.5705
2.79168	6.0088
2.78269	6.2344
2.77376	6.6343
2.76488	7.2558
2.75606	7.8906
2.7473	8.405
2.73859	8.7973
2.72994	9.2275
2.72134	9.542
2.7128	10.0842
2.70431	10.6369
2.69587	11.1057
2.68748	11.437
2.67915	11.5703
2.67087	11.9028
2.66264	12.3025
2.65446	12.5407
2.64633	12.6255
2.63825	12.6674
2.63021	12.7346
2.62223	12.8181
2.6143	12.8437
2.60641	12.9272
2.59857	13.0905
2.59078	13.2016
2.58304	13.2754
2.57534	13.2705
2.56768	13.2114
2.56008	13.2487
2.55251	13.1711
2.54499	13.1682
2.53752	13.1936
2.53009	13.2253
2.5227	13.2741
2.51536	13.3012
2.50806	13.3657
2.5008	13.5171
2.49358	13.6723
2.4864	13.747
2.47927	13.8916
2.47218	13.9848
2.46512	14.0039
2.45811	14.0688
2.45114	14.1748
2.4442	14.1992
2.43731	14.2583
2.43045	14.2422
2.42363	14.2295
2.41685	14.1318
2.41011	14.0551
2.40341	13.8662
2.39674	13.686
2.39011	13.3965
2.38352	12.9753
2.37696	12.4492
2.37044	11.6897
2.36395	10.5923
2.35751	9.0571
2.35109	7.4162
2.34471	6.1926
2.33836	5.7641
2.33205	5.9563
2.32578	6.6338
2.31953	7.4626
2.31332	8.2583
2.30714	9.1982
2.301	10.1335
2.29489	10.7976
2.28881	11.2138
2.28276	11.6054
2.27675	11.894
2.27076	11.8195
2.26481	11.5376
2.25889	11.0188
2.253	10.4804
2.24714	11.133
2.24131	12.1711
2.23551	13.0639
2.22974	13.5503
2.224	13.8784
2.21829	14.0442
2.21261	14.1701
2.20696	14.2187
2.20134	14.2736
2.19574	14.3491
2.19018	14.4428
2.18464	14.4575
2.17913	14.4887
2.17365	14.54
2.16819	14.6252
2.16277	14.6945
2.15737	14.7563
2.15199	14.707
2.14665	14.7329
2.14133	14.7124
2.13603	14.8012
2.13077	14.771
2.12552	14.7563
2.12031	14.7929
2.11512	14.8293
2.10995	14.8508
2.10481	14.8315
2.0997	14.8838
2.09461	14.926
2.08954	14.9621
2.0845	14.9182
2.07948	14.8613
