Name: Tremolite Ca2(Mg, Fe+2)5Si8O22(OH)2
Type: Mineral
Class: Silicates
Subclass: Inosilicates (Chain Silicates); (Amphibole Group)
Particle Size: Fine  (Less than 2  Micrometers)
Sample No.: tremol.2
Owner: JHU
Wavelength Range: IR
Origin: Canada via the Smithsonian (sample no. NMNH 117611)
Description: The sample consisted of a single 21.41 g piece of
Measurement: Transmission
X Units: Wavelength (micrometers)
Y Units: Transmittance (percent)
wavelength	value
25.0442	52.9139
24.3388	44.1737
23.6719	40.5585
23.0407	30.914
22.4422	21.3007
21.8741	14.4316
21.334	14.6679
20.8199	20.8164
20.33	30.6659
19.8627	26.5644
19.4163	26.3124
18.9896	32.4789
18.5812	42.1957
18.19	45.7738
17.815	61.6156
17.4551	70.8592
17.1094	76.2781
16.7772	80.1287
16.4576	80.9324
16.15	80.6971
15.8537	81.1316
15.568	79.7268
15.2925	73.8504
15.0265	61.6151
14.7697	70.1317
14.5214	76.6229
14.2814	77.4368
14.0492	75.6561
13.8244	74.8875
13.6067	69.5587
13.3957	64.9581
13.1912	74.0877
12.9929	82.3887
12.8004	83.2617
12.6135	82.7303
12.432	80.8435
12.2557	78.4932
12.0843	75.6619
11.9176	70.834
11.7555	64.6951
11.5977	60.3184
11.444	54.4315
11.2944	45.7909
11.1487	37.008
11.0067	28.2504
10.8682	22.0312
10.7332	22.4423
10.6015	20.2824
10.473	15.8427
10.3476	15.4218
10.2251	14.7622
10.1056	15.4165
9.98873	20.2773
9.87458	24.6506
9.763	28.0116
9.65392	29.8927
9.54724	28.2074
9.44291	24.6337
9.34082	23.4335
9.24091	24.1848
9.14312	27.7192
9.04739	35.0561
8.95363	41.2719
8.8618	44.6427
8.77183	39.476
8.68368	50.0926
8.59727	59.0912
8.51257	64.0894
8.42951	67.4747
8.34807	70.1385
8.26819	72.5423
8.18981	74.5745
8.11292	76.1656
8.03745	77.5027
7.96337	78.929
7.89064	80.1036
7.81924	81.011
7.74911	81.9246
7.68023	82.698
7.61256	83.4876
7.54608	84.2227
7.48074	84.7508
7.41653	85.2962
7.35341	85.782
7.29136	86.2366
7.23034	86.406
7.17033	87.3245
7.11132	87.7175
7.05327	87.8801
6.99616	88.3142
6.93996	88.7341
6.88467	89.012
6.83024	89.0535
6.77667	89.325
6.72393	89.7083
6.67201	90.0711
6.62089	90.3025
6.57054	90.6052
6.52095	90.7498
6.4721	90.8953
6.42398	90.9485
6.37657	90.8997
6.32986	90.8172
6.28382	90.7962
6.23845	90.7805
6.19373	90.6751
6.14965	90.6067
6.10619	90.4011
6.06334	90.7449
6.02109	91.7293
5.97942	92.3699
5.93832	92.3113
5.89778	92.3372
5.8578	92.5671
5.81835	92.7771
5.77943	92.8836
5.74103	92.8713
5.70314	92.9856
5.66574	93.2175
5.62883	93.3528
5.5924	93.4592
5.55644	93.6633
5.52093	93.6831
5.48588	93.8079
5.45127	93.9929
5.41709	94.1619
5.38334	94.2205
5.35	94.3596
5.31708	94.4949
5.28456	94.5598
5.25243	94.594
5.2207	94.6565
5.18934	94.6936
5.15836	94.7148
5.12775	94.6719
5.09749	94.6184
5.0676	94.5879
5.03805	94.6221
5.00884	94.6777
4.97998	94.719
4.95144	94.7969
4.92322	94.8606
4.89533	94.866
4.86775	94.9172
4.84048	94.9778
4.81351	95.0159
4.78684	95.0642
4.76047	95.1279
4.73439	95.0876
4.70859	95.1399
4.68306	95.1287
4.65782	95.219
4.63284	95.2366
4.60814	95.3777
4.58369	95.3328
4.5595	95.3289
4.53557	95.3418
4.51188	95.3215
4.48845	95.375
4.46525	95.3555
4.44229	95.3259
4.41957	95.3176
4.39708	95.3528
4.37481	95.3359
4.35277	95.374
4.33096	95.3608
4.30935	95.3035
4.28797	95.3135
4.26679	95.3154
4.24583	95.3535
4.22506	95.2859
4.2045	95.2659
4.18414	95.262
4.16398	95.241
4.14401	95.197
4.12423	95.2588
4.10464	95.1941
4.08523	95.1631
4.066	95.1257
4.04696	95.1506
4.02809	95.1101
4.0094	95.1091
3.99088	95.0935
3.97253	95.0254
3.95435	95.0303
3.93634	95.0242
3.91848	94.9482
3.90079	94.9641
3.88326	94.9102
3.86589	94.8113
3.84867	94.8801
3.8316	94.8123
3.81468	94.7734
3.79791	94.8054
3.78129	94.7429
3.76482	94.6584
3.74848	94.6257
3.73229	94.5508
3.71624	94.5139
3.70032	94.3889
3.68454	94.3342
3.6689	94.2969
3.65338	94.2341
3.638	94.2605
3.62275	94.1726
3.60762	94.1316
3.59262	94.0498
3.57775	94.0115
3.56299	93.8484
3.54836	93.8406
3.53385	93.749
3.51945	93.6231
3.50517	93.3633
3.49101	93.3828
3.47696	93.3555
3.46303	93.3552
3.4492	93.1182
3.43549	93.0999
3.42188	92.7334
3.40838	92.6453
3.39499	92.8655
3.38171	92.7764
3.36852	92.8455
3.35544	92.7764
3.34246	92.7195
3.32958	92.7881
3.3168	92.6179
3.30411	92.7258
3.29153	92.6062
3.27903	92.5208
3.26664	92.5042
3.25433	92.3347
3.24212	92.3069
3.23	92.1795
3.21797	92.1189
3.20603	91.906
3.19418	91.7976
3.18241	91.6531
3.17074	91.5711
3.15914	91.4065
3.14763	91.2781
3.13621	91.0955
3.12487	90.906
3.11361	90.7771
3.10243	90.575
3.09133	90.2581
3.0803	90.1506
3.06936	90.0144
3.0585	89.8933
3.04771	89.7381
3.037	89.4627
3.02636	89.3377
3.0158	89.0906
3.00531	88.8836
2.99489	88.5134
2.98454	88.3128
2.97427	87.9177
2.96407	87.4885
2.95393	87.3518
2.94387	87.178
2.93387	86.7854
2.92394	86.6648
2.91408	86.5315
2.90429	86.5974
2.89456	86.5935
2.88489	86.6433
2.87529	86.6873
2.86576	86.7908
2.85628	87.0506
2.84687	87.1311
2.83752	87.2893
2.82823	87.572
2.81901	87.825
2.80984	88.1175
2.80073	88.3982
2.79168	88.7698
2.78269	89.2029
2.77376	89.617
2.76488	89.9299
2.75606	90.3767
2.7473	90.7092
2.73859	91.0037
2.72994	90.7815
2.72134	89.5662
2.7128	91.2976
2.70431	90.3064
2.69587	90.1052
2.68748	91.3357
2.67915	91.8318
2.67087	91.8621
2.66264	91.6687
2.65446	91.7
2.64633	91.6345
2.63825	91.6531
2.63021	91.7107
2.62223	91.6736
2.6143	91.4734
2.60641	91.5427
2.59857	91.5476
2.59078	91.5134
2.58304	91.5388
2.57534	91.2361
2.56768	91.531
2.56008	91.367
2.55251	91.239
2.54499	91.2351
2.53752	91.3445
2.53009	91.2791
2.5227	90.9607
2.51536	91.1072
2.50806	90.9539
2.5008	91.1013
2.49358	90.8953
2.4864	90.989
2.47927	90.9031
2.47218	90.8494
2.46512	90.9148
2.45811	90.7
2.45114	90.8787
2.4442	90.5994
2.43731	90.6658
2.43045	90.5291
2.42363	90.5994
2.41685	90.6765
2.41011	90.5437
2.40341	90.3552
2.39674	90.2068
2.39011	90.2146
2.38352	90.3406
2.37696	90.2654
2.37044	90.0076
2.36395	90.0632
2.35751	90.1756
2.35109	90.2312
2.34471	90.0672
2.33836	89.8875
2.33205	89.4998
2.32578	89.8162
2.31953	89.9187
2.31332	89.574
2.30714	89.6345
2.301	89.6131
2.29489	89.6209
2.28881	89.6345
2.28276	89.5291
2.27675	89.4021
2.27076	89.4978
2.26481	89.2713
2.25889	89.1795
2.253	89.4861
2.24714	89.0935
2.24131	88.9998
2.23551	89.0174
2.22974	89.1189
2.224	88.6502
2.21829	88.7752
2.21261	88.9158
2.20696	88.783
2.20134	88.2986
2.19574	88.6736
2.19018	88.4705
2.18464	88.5935
2.17913	88.3064
2.17365	88.283
2.16819	88.6033
2.16277	88.3455
2.15737	88.4002
2.15199	88.1736
2.14665	88.2127
2.14133	88.2752
2.13603	88.0701
2.13077	88.2127
2.12552	87.9529
2.12031	87.9646
2.11512	87.7517
2.10995	87.7224
2.10481	87.8377
2.0997	88.0174
2.09461	87.7146
2.08954	87.4802
2.0845	87.8474
2.07948	87.7049
