Name: Heulandite (Na,Ca)2-3Al3(Al,Si)2Si13O36.12H2O
Type: Mineral
Class: Silicates
Subclass: Tectosilicates (Zeolite Group)
Particle Size: Coarse  (74-250 Micrometers)
Sample No.: heulan.1
Owner: JHU
Wavelength Range: IR
Origin: Teigarhora, Iceland via W. J. Ehmann #37.
Description: No solid sample was available.  Petrographically the
Measurement: Bidirectional reflectance
X Units: Wavelength (micrometers)
Y Units: Reflectance (percent)
wavelength	value
25.0442	5.2139
24.3388	5.3979
23.6719	5.3369
23.0407	5.5149
22.4422	6.2549
21.8741	7.227
21.334	8.3808
20.8199	8.9958
20.33	7.7475
19.8627	5.7744
19.4163	4.6099
18.9896	4.521
18.5812	3.5203
18.19	2.9221
17.815	2.8599
17.4551	2.9287
17.1094	2.9778
16.7772	3.1142
16.4576	3.0835
16.15	2.7026
15.8537	2.5054
15.568	2.3843
15.2925	2.3967
15.0265	2.52
14.7697	2.5198
14.5214	2.4988
14.2814	2.5632
14.0492	2.6055
13.8244	2.5481
13.6067	2.4458
13.3957	2.3953
13.1912	2.4119
12.9929	2.4348
12.8004	2.4399
12.6135	2.4246
12.432	2.5098
12.2557	2.7834
12.0843	3.0884
11.9176	3.2524
11.7555	3.404
11.5977	3.5842
11.444	3.7058
11.2944	3.8794
11.1487	3.9143
11.0067	3.9382
10.8682	3.9504
10.7332	3.968
10.6015	3.946
10.473	3.9748
10.3476	4.0369
10.2251	4.2209
10.1056	4.4895
9.98873	4.7847
9.87458	5.051
9.763	5.2319
9.65392	5.3601
9.54724	5.6418
9.44291	6.1296
9.34082	6.7263
9.24091	6.969
9.14312	6.8413
9.04739	6.6006
8.95363	6.3655
8.8618	6.1785
8.77183	6.0036
8.68368	5.8613
8.59727	5.6838
8.51257	5.6538
8.42951	5.8179
8.34807	5.8733
8.26819	5.8435
8.18981	5.7712
8.11292	4.5224
8.03745	2.6262
7.96337	1.095
7.89064	0.3894
7.81924	0.4062
7.74911	0.6147
7.68023	0.8369
7.61256	1.0671
7.54608	1.2812
7.48074	1.4714
7.41653	1.6323
7.35341	1.7593
7.29136	1.8723
7.23034	1.9783
7.17033	2.0737
7.11132	2.1726
7.05327	2.2288
6.99616	2.2969
6.93996	2.376
6.88467	2.4485
6.83024	2.51
6.77667	2.5693
6.72393	2.6284
6.67201	2.656
6.62089	2.6863
6.57054	2.688
6.52095	2.6941
6.4721	2.6809
6.42398	2.623
6.37657	2.5518
6.32986	2.4268
6.28382	2.2331
6.23845	1.9866
6.19373	1.7686
6.14965	1.5933
6.10619	1.477
6.06334	1.4971
6.02109	1.6443
5.97942	1.8467
5.93832	2.0928
5.89778	2.4065
5.8578	2.74
5.81835	3.0073
5.77943	3.2588
5.74103	3.4216
5.70314	3.5505
5.66574	3.6362
5.62883	3.7148
5.5924	3.7866
5.55644	3.854
5.52093	3.947
5.48588	4.041
5.45127	4.1623
5.41709	4.2815
5.38334	4.3901
5.35	4.4595
5.31708	4.5224
5.28456	4.5588
5.25243	4.595
5.2207	4.6211
5.18934	4.6689
5.15836	4.7283
5.12775	4.8066
5.09749	4.9097
5.0676	5.0173
5.03805	5.1096
5.00884	5.187
4.97998	5.2385
4.95144	5.2746
4.92322	5.2886
4.89533	5.2798
4.86775	5.2817
4.84048	5.2812
4.81351	5.2812
4.78684	5.2788
4.76047	5.2776
4.73439	5.2705
4.70859	5.2681
4.68306	5.2649
4.65782	5.2656
4.63284	5.2717
4.60814	5.2715
4.58369	5.3003
4.5595	5.3345
4.53557	5.3757
4.51188	5.4436
4.48845	5.5198
4.46525	5.6172
4.44229	5.7126
4.41957	5.8389
4.39708	5.9648
4.37481	6.1091
4.35277	6.261
4.33096	6.4114
4.30935	6.5715
4.28797	6.7287
4.26679	6.8884
4.24583	7.0476
4.22506	7.2082
4.2045	7.3533
4.18414	7.4851
4.16398	7.6138
4.14401	7.7358
4.12423	7.8484
4.10464	7.9555
4.08523	8.0617
4.066	8.156
4.04696	8.2434
4.02809	8.3213
4.0094	8.3833
3.99088	8.4231
3.97253	8.4577
3.95435	8.4949
3.93634	8.5146
3.91848	8.5342
3.90079	8.5256
3.88326	8.5283
3.86589	8.5032
3.84867	8.4553
3.8316	8.4094
3.81468	8.3508
3.79791	8.2732
3.78129	8.1904
3.76482	8.1035
3.74848	8.0088
3.73229	7.8935
3.71624	7.7783
3.70032	7.646
3.68454	7.5166
3.6689	7.3789
3.65338	7.228
3.638	7.0757
3.62275	6.915
3.60762	6.758
3.59262	6.6015
3.57775	6.4299
3.56299	6.2578
3.54836	6.1008
3.53385	5.9387
3.51945	5.7754
3.50517	5.5903
3.49101	5.4277
3.47696	5.2707
3.46303	5.0957
3.4492	4.9311
3.43549	4.7517
3.42188	4.5701
3.40838	4.4153
3.39499	4.2627
3.38171	4.1116
3.36852	3.9692
3.35544	3.8357
3.34246	3.686
3.32958	3.5498
3.3168	3.4238
3.30411	3.2949
3.29153	3.175
3.27903	3.0676
3.26664	2.949
3.25433	2.8647
3.24212	2.7585
3.23	2.6694
3.21797	2.5962
3.20603	2.5171
3.19418	2.437
3.18241	2.3633
3.17074	2.2974
3.15914	2.2312
3.14763	2.1829
3.13621	2.126
3.12487	2.083
3.11361	2.0388
3.10243	2.0024
3.09133	1.9831
3.0803	1.9651
3.06936	1.9485
3.0585	1.9343
3.04771	1.9143
3.037	1.896
3.02636	1.8735
3.0158	1.8374
3.00531	1.8142
2.99489	1.7834
2.98454	1.7705
2.97427	1.7356
2.96407	1.708
2.95393	1.6873
2.94387	1.6694
2.93387	1.6636
2.92394	1.6472
2.91408	1.6328
2.90429	1.6174
2.89456	1.6074
2.88489	1.6094
2.87529	1.6091
2.86576	1.6025
2.85628	1.5915
2.84687	1.5891
2.83752	1.5847
2.82823	1.5825
2.81901	1.5754
2.80984	1.5798
2.80073	1.5691
2.79168	1.5637
2.78269	1.54
2.77376	1.5339
2.76488	1.5347
2.75606	1.5591
2.7473	1.6245
2.73859	1.7646
2.72994	2.0437
2.72134	2.4038
2.7128	2.8538
2.70431	3.2505
2.69587	3.6326
2.68748	3.9534
2.67915	4.2217
2.67087	4.4314
2.66264	4.6816
2.65446	4.855
2.64633	5.0203
2.63825	5.155
2.63021	5.2244
2.62223	5.323
2.6143	5.3845
2.60641	5.4192
2.59857	5.4805
2.59078	5.5012
2.58304	5.5068
2.57534	5.5412
2.56768	5.5552
2.56008	5.5493
2.55251	5.5786
2.54499	5.6252
2.53752	5.678
2.53009	5.7002
2.5227	5.7451
2.51536	5.8171
2.50806	5.9084
2.5008	5.9668
2.49358	6.031
2.4864	6.091
2.47927	6.1653
2.47218	6.24
2.46512	6.2988
2.45811	6.3808
2.45114	6.4414
2.4442	6.5244
2.43731	6.6057
2.43045	6.7204
2.42363	6.8408
2.41685	6.9831
2.41011	7.1413
2.40341	7.2861
2.39674	7.4695
2.39011	7.6296
2.38352	7.812
2.37696	8.02
2.37044	8.2073
2.36395	8.3733
2.35751	8.5766
2.35109	8.7602
2.34471	8.9306
2.33836	9.0495
2.33205	9.1831
2.32578	9.3442
2.31953	9.456
2.31332	9.5532
2.30714	9.6474
2.301	9.7724
2.29489	9.8174
2.28881	9.875
2.28276	9.958
2.27675	9.9885
2.27076	10.0429
2.26481	10.1176
2.25889	10.1465
2.253	10.1718
2.24714	10.1982
2.24131	10.2187
2.23551	10.2666
2.22974	10.2549
2.224	10.2436
2.21829	10.2717
2.21261	10.249
2.20696	10.251
2.20134	10.2656
2.19574	10.27
2.19018	10.2461
2.18464	10.2212
2.17913	10.1948
2.17365	10.166
2.16819	10.1616
2.16277	10.164
2.15737	10.1255
2.15199	10.0766
2.14665	10.0156
2.14133	10.0156
2.13603	10.0112
2.13077	9.9917
2.12552	9.937
2.12031	9.924
2.11512	9.8835
2.10995	9.8425
2.10481	9.8364
2.0997	9.7973
2.09461	9.7802
2.08954	9.7424
2.0845	9.7055
2.07948	9.6643
