Name: Olivine (Fo92) (Fe+2,Mg)2SiO4
Type: Mineral
Class: Silicates
Subclass: Nesosilicates (Isolated tetrahedra); (Olivine Group)
Particle Size: Coarse  (75 - 250  Micrometers)
Sample No.: olivine.12
Owner: JHU
Wavelength Range: IR
Origin: Ward's Natural Science Establishment.
Description: The hand sample consisted of small, translucent green
Measurement: Bidirectional reflectance
X Units: Wavelength (micrometers)
Y Units: Reflectance (percent)
wavelength	value
25.0442	6.5283
24.3388	8.9668
23.6719	10.4089
23.0407	7.7781
22.4422	6.863
21.8741	3.7847
21.334	3.9988
20.8199	2.8164
20.33	3.4153
19.8627	5.9765
19.4163	6.5815
18.9896	8.4448
18.5812	6.643
18.19	6.4858
17.815	5.5735
17.4551	4.1206
17.1094	2.3325
16.7772	1.3325
16.4576	1.4961
16.15	2.1333
15.8537	2.7312
15.568	2.3474
15.2925	1.3501
15.0265	1.0312
14.7697	1.0635
14.5214	1.1594
14.2814	1.2766
14.0492	1.4058
13.8244	1.5444
13.6067	1.6633
13.3957	1.8025
13.1912	1.8816
12.9929	2.0264
12.8004	2.1899
12.6135	2.312
12.432	2.512
12.2557	2.741
12.0843	3.1123
11.9176	3.5967
11.7555	3.5185
11.5977	4.3706
11.444	6.3408
11.2944	7.6667
11.1487	8.7224
11.0067	9.9572
10.8682	10.9804
10.7332	11.5693
10.6015	11.885
10.473	11.0017
10.3476	7.3342
10.2251	7.4243
10.1056	8.1802
9.98873	6.8154
9.87458	6.1333
9.763	5.2681
9.65392	4.5769
9.54724	4.5544
9.44291	4.8723
9.34082	4.9402
9.24091	3.352
9.14312	2.165
9.04739	1.4231
8.95363	0.9646
8.8618	0.7297
8.77183	0.7615
8.68368	0.8726
8.59727	0.957
8.51257	1.0229
8.42951	1.0637
8.34807	1.1843
8.26819	1.2539
8.18981	1.3144
8.11292	1.4558
8.03745	1.5825
7.96337	1.6821
7.89064	1.7292
7.81924	1.7183
7.74911	1.7412
7.68023	1.7717
7.61256	1.741
7.54608	1.7373
7.48074	1.8354
7.41653	1.9888
7.35341	2.1208
7.29136	2.2866
7.23034	2.3235
7.17033	2.407
7.11132	2.5237
7.05327	2.5383
6.99616	2.7607
6.93996	3.0408
6.88467	3.2461
6.83024	3.2353
6.77667	3.2888
6.72393	3.5456
6.67201	3.762
6.62089	3.9016
6.57054	3.8789
6.52095	3.8638
6.4721	3.8916
6.42398	3.9089
6.37657	3.9507
6.32986	3.97
6.28382	3.874
6.23845	3.897
6.19373	3.9338
6.14965	3.8799
6.10619	3.635
6.06334	3.0835
6.02109	2.4365
5.97942	2.2664
5.93832	2.2876
5.89778	2.2512
5.8578	2.2187
5.81835	2.251
5.77943	2.3335
5.74103	2.3108
5.70314	2.0823
5.66574	1.8696
5.62883	1.7363
5.5924	1.7815
5.55644	2.1101
5.52093	2.3018
5.48588	2.3489
5.45127	2.3486
5.41709	2.4407
5.38334	2.5913
5.35	2.7234
5.31708	2.7959
5.28456	2.8393
5.25243	2.8447
5.2207	2.8457
5.18934	2.9856
5.15836	3.1677
5.12775	3.4172
5.09749	3.6274
5.0676	3.7593
5.03805	3.8003
5.00884	3.7607
4.97998	3.6601
4.95144	3.5503
4.92322	3.7107
4.89533	4.1052
4.86775	4.6995
4.84048	5.1416
4.81351	5.3708
4.78684	5.5193
4.76047	5.6282
4.73439	5.7095
4.70859	5.7849
4.68306	5.8547
4.65782	5.9226
4.63284	5.9839
4.60814	6.0469
4.58369	6.1135
4.5595	6.1938
4.53557	6.271
4.51188	6.3406
4.48845	6.4072
4.46525	6.4824
4.44229	6.5422
4.41957	6.6091
4.39708	6.667
4.37481	6.7317
4.35277	6.8017
4.33096	6.864
4.30935	6.9097
4.28797	6.9538
4.26679	7.0124
4.24583	7.0881
4.22506	7.1711
4.2045	7.2444
4.18414	7.2959
4.16398	7.3562
4.14401	7.4204
4.12423	7.4731
4.10464	7.5212
4.08523	7.57
4.066	7.6133
4.04696	7.6216
4.02809	7.6145
4.0094	7.6318
3.99088	7.7019
3.97253	7.7783
3.95435	7.8547
3.93634	7.8994
3.91848	7.9482
3.90079	7.9746
3.88326	8.0024
3.86589	8.0185
3.84867	8.0403
3.8316	8.0681
3.81468	8.1111
3.79791	8.156
3.78129	8.2178
3.76482	8.2793
3.74848	8.3254
3.73229	8.3786
3.71624	8.4333
3.70032	8.4858
3.68454	8.5473
3.6689	8.5837
3.65338	8.6303
3.638	8.6738
3.62275	8.7214
3.60762	8.7822
3.59262	8.8281
3.57775	8.873
3.56299	8.9021
3.54836	8.9424
3.53385	8.9646
3.51945	9.0058
3.50517	9.0378
3.49101	9.0757
3.47696	9.1091
3.46303	9.1469
3.4492	9.1609
3.43549	9.1865
3.42188	9.2068
3.40838	9.2234
3.39499	9.2409
3.38171	9.2649
3.36852	9.2942
3.35544	9.3122
3.34246	9.3484
3.32958	9.3801
3.3168	9.4123
3.30411	9.4524
3.29153	9.4846
3.27903	9.5227
3.26664	9.5456
3.25433	9.5591
3.24212	9.582
3.23	9.601
3.21797	9.6106
3.20603	9.6299
3.19418	9.6467
3.18241	9.6653
3.17074	9.6797
3.15914	9.6845
3.14763	9.6936
3.13621	9.7038
3.12487	9.7112
3.11361	9.7251
3.10243	9.7378
3.09133	9.7351
3.0803	9.7434
3.06936	9.7612
3.0585	9.7749
3.04771	9.7842
3.037	9.7968
3.02636	9.8027
3.0158	9.8027
3.00531	9.7956
2.99489	9.8086
2.98454	9.8364
2.97427	9.8232
2.96407	9.8198
2.95393	9.8384
2.94387	9.8354
2.93387	9.8357
2.92394	9.8425
2.91408	9.8462
2.90429	9.8567
2.89456	9.8623
2.88489	9.8847
2.87529	9.8794
2.86576	9.8916
2.85628	9.9052
2.84687	9.8945
2.83752	9.8972
2.82823	9.9104
2.81901	9.9238
2.80984	9.9289
2.80073	9.9319
2.79168	9.9717
2.78269	9.9709
2.77376	10.0049
2.76488	10.0197
2.75606	10.0317
2.7473	10.0925
2.73859	10.0942
2.72994	10.1374
2.72134	10.1418
2.7128	10.1863
2.70431	10.2187
2.69587	10.2356
2.68748	10.2751
2.67915	10.2925
2.67087	10.2834
2.66264	10.3213
2.65446	10.333
2.64633	10.3564
2.63825	10.3459
2.63021	10.3225
2.62223	10.3547
2.6143	10.3728
2.60641	10.3408
2.59857	10.3806
2.59078	10.376
2.58304	10.3794
2.57534	10.3786
2.56768	10.3755
2.56008	10.3879
2.55251	10.3738
2.54499	10.3933
2.53752	10.414
2.53009	10.3874
2.5227	10.3864
2.51536	10.3818
2.50806	10.4055
2.5008	10.4096
2.49358	10.416
2.4864	10.4216
2.47927	10.407
2.47218	10.4299
2.46512	10.4121
2.45811	10.4175
2.45114	10.4301
2.4442	10.4223
2.43731	10.426
2.43045	10.4299
2.42363	10.4345
2.41685	10.4489
2.41011	10.4526
2.40341	10.4487
2.39674	10.4538
2.39011	10.4472
2.38352	10.4587
2.37696	10.4551
2.37044	10.4707
2.36395	10.4575
2.35751	10.4428
2.35109	10.467
2.34471	10.4692
2.33836	10.4394
2.33205	10.4526
2.32578	10.4482
2.31953	10.4721
2.31332	10.4912
2.30714	10.4634
2.301	10.4922
2.29489	10.4934
2.28881	10.4907
2.28276	10.4843
2.27675	10.4853
2.27076	10.4804
2.26481	10.4985
2.25889	10.5166
2.253	10.5215
2.24714	10.5166
2.24131	10.4834
2.23551	10.53
2.22974	10.5205
2.224	10.4751
2.21829	10.5019
2.21261	10.5156
2.20696	10.5205
2.20134	10.5046
2.19574	10.5034
2.19018	10.5078
2.18464	10.5078
2.17913	10.5146
2.17365	10.497
2.16819	10.5542
2.16277	10.5473
2.15737	10.5532
2.15199	10.5417
2.14665	10.4834
2.14133	10.5056
2.13603	10.5288
2.13077	10.5241
2.12552	10.5508
2.12031	10.5439
2.11512	10.4966
2.10995	10.5547
2.10481	10.5363
2.0997	10.5354
2.09461	10.5429
2.08954	10.5732
2.0845	10.5813
2.07948	10.5366
