Name: Gypsum (alabaster) CaSO4.2H20
Type: Mineral
Class: Sulfates
Particle Size: Fine  (0-74 micrometers)
Sample No.: gypsum.1
Owner: JHU
Wavelength Range: IR
Origin: Pomaia, Italy via Hunt and Salisbury Collection #26B
Description: The sample was white, translucent, and appeared pure,
Measurement: Bidirectional reflectance
X Units: Wavelength (micrometers)
Y Units: Reflectance (percent)
wavelength	value
25.0442	1.5933
24.3388	1.842
23.6719	1.7434
23.0407	1.7944
22.4422	1.8335
21.8741	1.9766
21.334	2.0342
20.8199	2.0269
20.33	2.1216
19.8627	2.1172
19.4163	2.0393
18.9896	1.9912
18.5812	1.9653
18.19	1.8022
17.815	1.6709
17.4551	1.5244
17.1094	1.4431
16.7772	1.5083
16.4576	1.5708
16.15	1.241
15.8537	1.2246
15.568	1.5535
15.2925	1.79
15.0265	1.6123
14.7697	2.0767
14.5214	2.238
14.2814	2.106
14.0492	2.2195
13.8244	2.4607
13.6067	2.6697
13.3957	2.8669
13.1912	3.0232
12.9929	3.1438
12.8004	3.1926
12.6135	3.1609
12.432	3.1772
12.2557	3.1846
12.0843	3.1846
11.9176	3.1567
11.7555	3.1426
11.5977	3.1006
11.444	3.0327
11.2944	2.9797
11.1487	2.957
11.0067	2.8889
10.8682	2.8164
10.7332	2.7644
10.6015	2.6916
10.473	2.6321
10.3476	2.5298
10.2251	2.4546
10.1056	2.354
9.98873	2.1982
9.87458	2.2046
9.763	2.1523
9.65392	2.0574
9.54724	1.9648
9.44291	1.8564
9.34082	1.7436
9.24091	1.5847
9.14312	1.4983
9.04739	1.6047
8.95363	1.9148
8.8618	2.1648
8.77183	2.3498
8.68368	2.529
8.59727	2.7246
8.51257	2.9646
8.42951	3.383
8.34807	3.8464
8.26819	3.3711
8.18981	2.3584
8.11292	1.5281
8.03745	1.0583
7.96337	0.9661
7.89064	1.1665
7.81924	1.5476
7.74911	2.0149
7.68023	2.5476
7.61256	3.0356
7.54608	3.4614
7.48074	3.9529
7.41653	4.4609
7.35341	4.9563
7.29136	5.3728
7.23034	5.7273
7.17033	6.0354
7.11132	6.3218
7.05327	6.5693
6.99616	6.7847
6.93996	6.9211
6.88467	6.9807
6.83024	7.0888
6.77667	7.1902
6.72393	7.219
6.67201	7.1531
6.62089	6.9912
6.57054	6.6645
6.52095	6.4446
6.4721	6.3205
6.42398	6.1514
6.37657	5.8313
6.32986	5.2373
6.28382	4.3569
6.23845	3.1606
6.19373	1.832
6.14965	1.6377
6.10619	2.5801
6.06334	3.7014
6.02109	4.03
5.97942	3.1851
5.93832	2.0102
5.89778	3.1531
5.8578	4.9736
5.81835	6.186
5.77943	6.998
5.74103	7.6577
5.70314	8.2085
5.66574	8.6008
5.62883	8.9382
5.5924	9.2275
5.55644	9.4548
5.52093	9.8403
5.48588	10.218
5.45127	10.4846
5.41709	10.6399
5.38334	10.7336
5.35	10.8459
5.31708	10.9597
5.28456	11.0468
5.25243	11.1345
5.2207	11.1731
5.18934	11.0998
5.15836	10.9848
5.12775	10.8672
5.09749	10.789
5.0676	10.6992
5.03805	10.6657
5.00884	10.6577
4.97998	10.373
4.95144	10.5107
4.92322	10.375
4.89533	10.1218
4.86775	9.8008
4.84048	9.4428
4.81351	8.904
4.78684	7.9929
4.76047	6.3642
4.73439	5.071
4.70859	5.2429
4.68306	5.2986
4.65782	5.5032
4.63284	5.4619
4.60814	5.155
4.58369	4.6377
4.5595	4.0735
4.53557	3.8025
4.51188	3.7439
4.48845	3.7112
4.46525	3.7092
4.44229	3.866
4.41957	4.1872
4.39708	4.5845
4.37481	4.9543
4.35277	5.3547
4.33096	5.8374
4.30935	6.5376
4.28797	7.3401
4.26679	8.0581
4.24583	8.7356
4.22506	9.3357
4.2045	9.8606
4.18414	10.3501
4.16398	10.8003
4.14401	11.1919
4.12423	11.571
4.10464	11.9438
4.08523	12.2949
4.066	12.6384
4.04696	12.9372
4.02809	13.2046
4.0094	13.4204
3.99088	13.5161
3.97253	13.4267
3.95435	13.8515
3.93634	14.1526
3.91848	14.3408
3.90079	14.4611
3.88326	14.3994
3.86589	14.2856
3.84867	14.6042
3.8316	14.688
3.81468	14.7199
3.79791	14.6984
3.78129	14.684
3.76482	14.6777
3.74848	14.6413
3.73229	14.5844
3.71624	14.5522
3.70032	14.5088
3.68454	14.4155
3.6689	14.2871
3.65338	14.155
3.638	13.9973
3.62275	13.8264
3.60762	13.6379
3.59262	13.414
3.57775	13.2082
3.56299	13.0468
3.54836	12.8872
3.53385	12.7514
3.51945	12.5986
3.50517	12.4026
3.49101	12.2373
3.47696	12.0649
3.46303	11.8706
3.4492	11.6469
3.43549	11.3882
3.42188	11.1269
3.40838	10.8864
3.39499	10.6176
3.38171	10.292
3.36852	9.9836
3.35544	9.6357
3.34246	9.3188
3.32958	8.9919
3.3168	8.581
3.30411	8.1443
3.29153	7.6672
3.27903	7.2239
3.26664	6.8452
3.25433	6.4958
3.24212	6.1177
3.23	5.7663
3.21797	5.4167
3.20603	5.0661
3.19418	4.6909
3.18241	4.2978
3.17074	3.8765
3.15914	3.4421
3.14763	3.0439
3.13621	2.7068
3.12487	2.4712
3.11361	2.2939
3.10243	2.0857
3.09133	1.8144
3.0803	1.6062
3.06936	1.6497
3.0585	1.5801
3.04771	1.511
3.037	1.4272
3.02636	1.3301
3.0158	1.2383
3.00531	1.1782
2.99489	1.1262
2.98454	1.092
2.97427	1.0139
2.96407	0.9341
2.95393	0.8367
2.94387	0.8005
2.93387	0.7947
2.92394	0.8044
2.91408	0.772
2.90429	0.751
2.89456	0.7222
2.88489	0.6868
2.87529	0.6499
2.86576	0.5884
2.85628	0.5823
2.84687	0.6772
2.83752	0.6821
2.82823	0.708
2.81901	0.7295
2.80984	0.7393
2.80073	0.7903
2.79168	0.866
2.78269	0.9795
2.77376	1.1165
2.76488	1.3486
2.75606	1.7097
2.7473	2.2402
2.73859	2.8132
2.72994	3.3747
2.72134	3.9629
2.7128	4.6623
2.70431	5.4512
2.69587	6.1655
2.68748	6.7112
2.67915	7.1687
2.67087	7.5727
2.66264	8.0576
2.65446	8.4692
2.64633	8.8095
2.63825	9.0368
2.63021	9.1845
2.62223	9.279
2.6143	9.3742
2.60641	9.4607
2.59857	9.5412
2.59078	9.5984
2.58304	9.6096
2.57534	9.6518
2.56768	9.716
2.56008	9.7727
2.55251	9.8647
2.54499	9.9912
2.53752	10.0591
2.53009	10.0918
2.5227	10.0473
2.51536	9.9712
2.50806	9.884
2.5008	9.7893
2.49358	9.7109
2.4864	9.6845
2.47927	9.7129
2.47218	9.7759
2.46512	9.9726
2.45811	10.1186
2.45114	10.2383
2.4442	10.2478
2.43731	10.2832
2.43045	10.4087
2.42363	10.5381
2.41685	10.7749
2.41011	11.1157
2.40341	11.5981
2.39674	12.1269
2.39011	12.7348
2.38352	13.2387
2.37696	13.6718
2.37044	14.0459
2.36395	14.3291
2.35751	14.5561
2.35109	14.769
2.34471	14.9467
2.33836	15.0742
2.33205	15.1272
2.32578	15.1914
2.31953	15.2497
2.31332	15.249
2.30714	15.2495
2.301	15.2006
2.29489	15.1557
2.28881	15.0739
2.28276	14.9526
2.27675	14.7653
2.27076	14.5756
2.26481	14.5512
2.25889	14.6928
2.253	14.7744
2.24714	14.7255
2.24131	14.6967
2.23551	14.6347
2.22974	14.4223
2.224	14.1914
2.21829	14.0219
2.21261	14.0195
2.20696	14.1494
2.20134	14.2983
2.19574	14.4047
2.19018	14.4992
2.18464	14.562
2.17913	14.4829
2.17365	14.5774
2.16819	14.7102
2.16277	14.7636
2.15737	14.917
2.15199	14.9731
2.14665	15.0529
2.14133	15.1167
2.13603	15.2414
2.13077	15.3364
2.12552	15.4514
2.12031	15.5629
2.11512	15.6464
2.10995	15.7382
2.10481	15.8508
2.0997	15.9563
2.09461	16.0659
2.08954	16.1691
2.0845	16.1943
2.07948	16.2075
