Name: Very dark grayish brown loam
Type: Soils
Class: Mollisol
Subclass: Cryoboroll
Particle Size: see additional information
Sample No.: 87P4453
Owner: JHU
Origin: Wayne Co., Utah, via USDA Soil Conservation service.
Description: Very dark grayish brown loam, (loamy-skeletal, mixed, typic).
Measurement: Directional (10 degree) hemispherical reflectance
X Units: Wavelength (micrometers)
Y Units: Reflectance (percent)
wavelength	value
14.011	1.4458
13.715	1.4963
13.43	1.5747
13.158	1.6294
12.896	1.7371
12.644	1.6401
12.402	1.6035
12.169	1.852
11.945	2.1423
11.729	2.4246
11.52	2.5305
11.319	2.6401
11.125	2.6941
10.937	2.7161
10.756	2.6804
10.58	2.783
10.41	2.9946
10.245	3.3481
10.086	3.8972
9.931	4.5163
9.781	4.7861
9.636	5.4597
9.495	5.5835
9.358	5.1882
9.225	4.6743
9.095	4.239
8.969	3.9961
8.847	3.9172
8.727	3.6987
8.612	3.2244
8.499	3.4475
8.389	3.4192
8.281	3.3323
8.177	2.9558
8.075	2.3049
7.976	1.9341
7.879	1.7239
7.784	1.6494
7.692	1.6523
7.601	1.6096
7.513	1.6016
7.427	1.6028
7.343	1.603
7.261	1.5925
7.18	1.6362
7.102	1.6401
7.025	1.6631
6.949	1.7688
6.875	1.8926
6.803	2.1404
6.733	2.4893
6.663	2.491
6.596	2.3018
6.529	2.1985
6.464	2.1133
6.4	2.0393
6.338	1.9631
6.276	1.823
6.216	1.6841
6.157	1.5894
6.099	1.5403
6.042	1.5293
5.986	1.6689
5.931	1.9048
5.878	2.3364
5.825	2.8137
5.773	3.3147
5.722	4.0066
5.672	4.7939
5.623	5.3039
5.574	5.8882
5.527	6.5879
5.48	7.1609
5.434	7.529
5.389	7.2827
5.345	7.0713
5.301	7.4394
5.258	8.074
5.215	8.9314
5.174	9.332
5.133	9.5549
5.093	9.7739
5.053	9.9162
5.014	10.0752
4.975	10.4839
4.937	11.0315
4.9	11.5967
4.863	12.1194
4.827	12.4101
4.791	12.5891
4.756	12.7736
4.721	12.9052
4.687	13.0183
4.654	13.2871
4.62	13.6047
4.588	13.9243
4.556	14.2212
4.524	14.4248
4.492	14.5263
4.461	14.7309
4.431	15.0044
4.401	15.2763
4.371	15.53
4.342	15.7695
4.313	15.8791
4.284	15.9511
4.256	16.0979
4.229	16.1311
4.201	16.247
4.174	16.2844
4.147	16.2275
4.121	16.2128
4.095	16.1047
4.069	16.0239
4.044	15.894
4.019	15.7707
3.994	15.6074
3.97	15.4462
3.945	15.3454
3.921	15.0893
3.898	14.9069
3.875	14.698
3.852	14.4248
3.829	14.1145
3.806	13.7924
3.784	13.4392
3.762	13.0612
3.74	12.7192
3.719	12.3357
3.698	11.9585
3.677	11.5771
3.656	11.2295
3.636	10.8728
3.615	10.5071
3.595	10.084
3.575	9.6684
3.556	9.1897
3.536	8.6728
3.517	7.8457
3.498	7.1706
3.479	7.0283
3.461	6.737
3.442	6.2773
3.424	5.6101
3.406	5.5581
3.388	5.6584
3.371	5.6633
3.353	5.7493
3.336	5.685
3.319	5.5124
3.302	5.3039
3.285	5.0535
3.269	4.8003
3.252	4.5725
3.236	4.3625
3.22	4.2058
3.204	3.9839
3.188	3.8122
3.173	3.6155
3.157	3.4289
3.142	3.3008
3.127	3.1626
3.112	3.0376
3.097	2.9355
3.082	2.8098
3.067	2.7778
3.053	2.6775
3.039	2.6238
3.025	2.6333
3.011	2.5637
2.997	2.5303
2.983	2.4497
2.969	2.3855
2.956	2.4006
2.942	2.3743
2.929	2.4133
2.916	2.3784
2.903	2.4353
2.89	2.4145
2.877	2.5217
2.864	2.4739
2.852	2.5417
2.839	2.6025
2.827	2.5754
2.814	2.6077
2.802	2.6457
2.79	2.6555
2.778	2.6216
2.766	2.4665
2.755	2.4358
2.743	2.7639
2.731	3.2666
2.72	3.9543
2.708	4.2517
2.697	5.7527
2.686	12.0437
2.675	16.5654
2.664	18.8591
2.653	20.5195
2.642	21.4982
2.632	22.082
2.621	22.6279
2.61	23.1201
2.6	23.3898
2.59	23.5131
2.579	23.6589
2.569	23.7712
2.559	23.8952
2.549	23.9328
2.539	23.9955
2.529	23.9909
2.519	24.058
2.509	24.1904
2.5	24.2802
2.49	24.3911
2.481	24.6325
2.471	24.8066
2.462	25.1774
2.452	25.4675
2.443	25.7158
2.434	26.0278
2.425	26.4389
2.416	26.7258
2.407	26.9081
2.398	27.1078
2.389	27.1999
2.38	27.3395
2.372	27.5226
2.363	27.6491
2.354	27.6535
2.346	27.8002
2.337	28.0751
2.329	28.1847
2.321	28.175
2.312	28.164
2.304	28.2848
2.296	28.5558
2.288	28.6803
2.28	28.7839
2.272	29.0077
2.264	29.089
2.256	29.1447
2.248	29.2685
2.24	29.3639
2.233	29.3146
2.225	29.3442
2.217	29.0453
2.21	28.3588
2.202	28.5253
2.195	28.7138
2.187	28.9308
2.18	29.2497
2.173	29.2404
2.166	29.5509
2.158	29.5343
2.151	29.7011
2.144	29.9648
2.137	29.9972
2.13	29.9255
2.123	30.069
2.116	30.0964
2.109	29.9555
2.102	30.2319
2.095	30.0295
2.089	30.0431
2.082	29.8874
2.06	30.4166
2.028	30.3076
1.996	29.1642
1.964	28.4994
1.932	26.3994
1.9	26.7002
1.868	31.6611
1.836	32.5053
1.804	31.872
1.772	31.6832
1.74	31.7181
1.708	31.2687
1.676	31.3186
1.644	31.3179
1.612	31.0008
1.58	30.7024
1.548	30.2929
1.516	29.9385
1.484	29.2672
1.452	28.9644
1.42	28.5679
1.388	28.1933
1.356	29.1786
1.324	29.0962
1.292	28.3687
1.26	28.1647
1.228	27.5168
1.196	27.2853
1.164	26.7282
1.132	26.1946
1.1	24.9722
1.068	24.424
1.036	24.1869
1.004	22.8302
0.972	22.4535
0.94	21.4559
0.908	20.4205
0.876	20.0943
0.844	19.3139
0.812	18.7511
0.795	17.5586
0.787	17.4999
0.779	17.0432
0.771	16.8413
0.763	16.4956
0.755	16.0502
0.747	15.7875
0.739	15.3988
0.731	14.9415
0.723	14.3607
0.715	14.1843
0.707	13.5941
0.699	13.5352
0.691	12.6759
0.683	12.2762
0.675	11.899
0.667	11.4216
0.659	11.0063
0.651	10.6634
0.643	10.3015
0.635	9.9477
0.627	9.4608
0.619	8.9879
0.611	8.805
0.603	8.2813
0.595	7.9312
0.587	7.3942
0.579	6.8671
0.571	6.4125
0.563	5.6493
0.555	4.5177
0.547	4.0272
0.539	3.7245
0.531	3.4173
0.523	3.2325
0.515	2.7479
0.507	2.0397
0.499	1.8419
0.491	1.5157
0.483	1.2589
0.475	1.1415
0.467	0.5585
0.459	0.5474
0.451	0
0.443	0
0.435	0
0.427	0
0.419	0
0.411	0
0.403	0
