Name: Purple-banded Sandstone
Type: Rocks
Class: Sedimentary
Subclass: Sandstone
Particle Size: 0 - 75 Micrometers
Sample No.: sandstone.6
Owner: JHU
Wavelength Range: All
Origin: Sample No. 453,  The Hunt and Salisbury Collection at the U.S.
Description: This low porosity sandstone contains fine-grained, well-
Measurement: Directional (10 Degree) Hemispherical Reflectance
X Units: Wavelength (micrometers)
Y Units: Reflectance (percent)
wavelength	value
14.983	2.2595
14.645	1.63
14.321	1.1268
14.011	2.1645
13.715	3.2091
13.43	2.5607
13.158	2.2033
12.896	2.4117
12.644	1.715
12.402	1.6504
12.169	2.4835
11.945	4.2426
11.729	5.2798
11.52	5.1377
11.319	4.3015
11.125	3.1757
10.937	2.1178
10.755	1.8929
10.58	1.9016
10.41	2.6365
10.245	3.0457
10.086	2.8816
9.931	2.7857
9.781	2.645
9.636	3.6718
9.495	4.5343
9.358	6.0743
9.225	6.588
9.095	5.268
8.969	3.934
8.847	6.7682
8.727	7.1331
8.612	5.8574
8.499	7.6506
8.389	8.2637
8.281	9.4321
8.177	10.093
8.075	7.1862
7.976	4.8216
7.879	2.9898
7.784	2.3845
7.692	2.1799
7.601	2.0065
7.513	2.1091
7.427	2.2443
7.343	2.4911
7.261	3.032
7.18	3.6361
7.102	4.1663
7.025	4.5305
6.949	5.263
6.875	5.6687
6.803	5.8782
6.733	5.8986
6.663	6.5404
6.596	6.8331
6.529	7.401
6.464	10.175
6.4	10.58
6.338	8.8228
6.276	6.9347
6.216	5.9879
6.157	7.2541
6.099	9.4783
6.042	10.251
5.986	10.067
5.931	9.2531
5.878	11.196
5.825	12.974
5.773	14.478
5.722	15.376
5.672	14.203
5.623	11.38
5.574	10.533
5.527	10.72
5.48	11.186
5.434	12.293
5.389	9.2652
5.345	7.6664
5.301	8.326
5.258	10.096
5.215	13.118
5.174	13.562
5.133	13.708
5.093	14.471
5.053	14.642
5.014	15.229
4.975	17.528
4.937	21.567
4.9	27.062
4.863	33.821
4.827	37.234
4.791	39.889
4.756	41.569
4.721	41.992
4.687	40.561
4.654	42.305
4.62	45.546
4.588	47.64
4.556	48.33
4.524	46.636
4.492	43.639
4.461	43.586
4.431	45.371
4.401	47.161
4.371	49.32
4.342	50.908
4.313	51.414
4.284	51.097
4.256	51.532
4.229	52.248
4.201	52.521
4.174	53.02
4.147	53.527
4.121	54.083
4.095	54.576
4.069	54.967
4.044	55.048
4.019	54.945
3.994	54.839
3.97	54.947
3.945	55.253
3.921	55.273
3.898	55.019
3.875	54.603
3.852	54.234
3.829	53.959
3.806	53.677
3.784	53.138
3.762	52.455
3.74	51.383
3.719	50.81
3.698	49.291
3.677	49.877
3.656	49.988
3.636	49.504
3.615	48.738
3.595	48.004
3.575	47.459
3.556	46.775
3.536	45.251
3.517	42.932
3.498	42.892
3.479	43.627
3.461	42.7
3.442	41.233
3.424	41.024
3.406	40.304
3.388	39.5
3.371	38.502
3.353	37.891
3.336	37.592
3.319	36.765
3.302	35.662
3.285	34.5
3.269	33.36
3.252	32.245
3.236	31.136
3.22	30.017
3.204	28.965
3.188	28.051
3.173	27.346
3.157	26.808
3.142	26.239
3.127	25.715
3.112	25.254
3.097	24.77
3.082	24.463
3.067	24.093
3.053	23.777
3.039	23.517
3.025	23.282
3.011	23.049
2.997	22.682
2.983	22.225
2.969	21.745
2.956	21.203
2.942	20.826
2.929	20.319
2.916	19.959
2.903	19.356
2.89	18.8
2.877	18.533
2.864	18.068
2.852	17.383
2.839	17.042
2.827	16.387
2.814	15.15
2.802	13.47
2.79	11.226
2.778	7.7775
2.766	3.5179
2.755	3.1963
2.743	2.9839
2.731	2.34
2.72	2.6391
2.708	1.9073
2.697	3.6531
2.686	11.743
2.675	19.5
2.664	25.182
2.653	29.692
2.642	32.371
2.632	34.293
2.621	35.79
2.61	36.674
2.6	37.217
2.59	37.647
2.579	38.025
2.569	38.508
2.559	39.309
2.549	39.46
2.539	40.022
2.529	40.446
2.519	40.933
2.509	41.268
2.5	41.681
2.49	41.803
2.481	42.882
2.471	43.624
2.462	43.865
2.452	44.21
2.443	44.805
2.434	46.122
2.425	47.321
2.416	48.017
2.407	48.356
2.398	47.883
2.389	46.773
2.38	46.62
2.372	47.968
2.363	48.245
2.354	48.201
2.346	49.166
2.337	49.768
2.329	49.345
2.321	49.405
2.312	49.704
2.304	50.659
2.296	51.239
2.288	51.617
2.28	52.09
2.272	52.657
2.264	52.992
2.256	53.154
2.248	53.16
2.24	52.911
2.233	53.092
2.225	52.459
2.217	49.882
2.21	39.629
2.202	45.424
2.195	47.179
2.187	48.322
2.18	48.822
2.173	48.396
2.166	47.801
2.158	48.142
2.151	50.081
2.144	52.74
2.137	54.167
2.13	54.821
2.123	55.047
2.116	55.115
2.109	55.433
2.102	55.82
2.095	55.884
2.089	55.927
2.082	56.245
2.06	56.517
2.028	56.11
1.996	55.444
1.964	54.311
1.932	53.2
1.9	54.747
1.868	53.559
1.836	55.089
1.804	54.207
1.772	53.848
1.74	53.666
1.708	53.843
1.676	53.397
1.644	53.005
1.612	52.832
1.58	53.239
1.548	53.277
1.516	53.294
1.484	52.648
1.452	52.55
1.42	51.683
1.388	48.731
1.356	51.697
1.324	52.616
1.292	53.341
1.26	53.978
1.228	54.157
1.196	54.41
1.164	54.224
1.132	54.994
1.1	55.392
1.068	55.805
1.036	55.879
1.004	55.856
0.972	55.991
0.94	56.117
0.908	56.214
0.876	56.318
0.844	56.972
0.812	57.784
0.795	57.241
0.787	57.153
0.779	57.449
0.771	57.206
0.763	56.816
0.755	56.429
0.747	56.624
0.739	56.133
0.731	56.004
0.723	55.303
0.715	54.936
0.707	54.641
0.699	54.301
0.691	54.708
0.683	54.565
0.675	53.562
0.667	54.125
0.659	53.618
0.651	53.372
0.643	53.215
0.635	52.913
0.627	52.561
0.619	52.511
0.611	52.055
0.603	52.052
0.595	51.584
0.587	50.915
0.579	51.016
0.571	50.381
0.563	49.468
0.555	47.183
0.547	46.587
0.539	45.6
0.531	44.683
0.523	43.216
0.515	42.09
0.507	41.106
0.499	39.636
0.491	38.406
0.483	37.322
0.475	36.801
0.467	36.048
0.459	36.37
0.451	35.574
0.443	34.674
0.435	32.92
0.427	30.934
0.419	28.786
0.411	27.657
0.403	26.007
