Name: Illite-bearing Shale
Type: Rocks
Class: Sedimentary
Subclass: Shale
Particle Size: 0 - 75 Micrometers
Sample No.: shale.5
Owner: JHU
Wavelength Range: All
Origin: Sample No. 449,  The Hunt and Salisbury Collection at the U.S.
Description: Sample is very homogeneously fine grained to
Measurement: Directional (10 Degree) Hemispherical Reflectance
X Units: Wavelength (micrometers)
Y Units: Reflectance (percent)
wavelength	value
14.983	1.5909
14.645	1.3979
14.321	1.3049
14.011	2.4451
13.715	2.9069
13.43	2.8837
13.158	2.9827
12.896	2.6066
12.644	2.2336
12.402	1.6463
12.169	2.1977
11.945	2.6256
11.729	3.6898
11.52	3.9413
11.319	3.6391
11.125	3.0052
10.937	2.3502
10.755	2.4934
10.58	2.6687
10.41	2.4631
10.245	2.1387
10.086	2.0297
9.931	2.0184
9.781	2.1382
9.636	2.4139
9.495	2.5564
9.358	2.8501
9.225	3.0869
9.095	3.2884
8.969	3.3573
8.847	3.413
8.727	3.4113
8.612	2.9595
8.499	3.5262
8.389	3.548
8.281	4.0972
8.177	5.0648
8.075	4.4656
7.976	3.921
7.879	3.3453
7.784	3.3978
7.692	3.8816
7.601	4.2845
7.513	4.8346
7.427	5.3435
7.343	5.7932
7.261	6.2283
7.18	6.3021
7.102	5.7087
7.025	5.5796
6.949	6.174
6.875	7.5509
6.803	8.8991
6.733	9.7253
6.663	10.834
6.596	11.762
6.529	12.967
6.464	15.66
6.4	16.273
6.338	15.058
6.276	12.821
6.216	10.904
6.157	10.781
6.099	11.708
6.042	12.562
5.986	13.189
5.931	13.472
5.878	15.484
5.825	17.558
5.773	18.862
5.722	19.605
5.672	19.187
5.623	17.253
5.574	16.46
5.527	17.124
5.48	18.785
5.434	19.792
5.389	17.378
5.345	15.375
5.301	16.66
5.258	19.901
5.215	24.365
5.174	26.096
5.133	26.751
5.093	26.943
5.053	26.431
5.014	26.644
4.975	28.68
4.937	31.613
4.9	35.004
4.863	38.155
4.827	39.595
4.791	40.634
4.756	41.715
4.721	42.718
4.687	43.177
4.654	44.389
4.62	45.703
4.588	46.771
4.556	47.563
4.524	47.831
4.492	47.584
4.461	48.015
4.431	49.073
4.401	50.072
4.371	51.05
4.342	51.625
4.313	51.744
4.284	50.957
4.256	49.877
4.229	52.15
4.201	52.891
4.174	53.218
4.147	53.578
4.121	53.934
4.095	54.198
4.069	54.347
4.044	54.271
4.019	53.801
3.994	52.581
3.97	51.373
3.945	51.623
3.921	52.162
3.898	52.891
3.875	53.086
3.852	53.431
3.829	53.003
3.806	52.581
3.784	52.717
3.762	52.588
3.74	52.201
3.719	51.673
3.698	51.136
3.677	50.619
3.656	49.95
3.636	49.226
3.615	48.262
3.595	47.153
3.575	45.819
3.556	44.353
3.536	43.231
3.517	42.643
3.498	42.024
3.479	41.558
3.461	40.693
3.442	39.798
3.424	38.768
3.406	37.601
3.388	36.49
3.371	35.211
3.353	34.009
3.336	32.974
3.319	31.995
3.302	31.285
3.285	30.712
3.269	30.24
3.252	29.983
3.236	29.493
3.22	28.718
3.204	27.836
3.188	26.904
3.173	25.956
3.157	25.011
3.142	24.013
3.127	22.983
3.112	21.908
3.097	20.774
3.082	19.79
3.067	18.908
3.053	18.128
3.039	17.448
3.025	16.977
3.011	16.608
2.997	16.355
2.983	16.216
2.969	15.878
2.956	15.527
2.942	15.215
2.929	15.095
2.916	15.184
2.903	15.401
2.89	15.714
2.877	15.868
2.864	15.613
2.852	14.824
2.839	13.468
2.827	11.772
2.814	10.19
2.802	8.5609
2.79	6.741
2.778	4.9684
2.766	4.0105
2.755	3.996
2.743	5.3639
2.731	8.3681
2.72	15.874
2.708	27.789
2.697	37.507
2.686	46.117
2.675	50.968
2.664	53.563
2.653	55.501
2.642	56.301
2.632	56.18
2.621	56.252
2.61	56.472
2.6	56.757
2.59	57.308
2.579	57.94
2.569	58.353
2.559	58.712
2.549	59.035
2.539	59.12
2.529	59.143
2.519	59.051
2.509	58.905
2.5	58.737
2.49	58.544
2.481	58.293
2.471	58.042
2.462	57.775
2.452	57.528
2.443	57.461
2.434	57.744
2.425	58.361
2.416	58.966
2.407	59.458
2.398	59.609
2.389	59.544
2.38	59.235
2.372	58.891
2.363	58.351
2.354	57.784
2.346	57.61
2.337	58.296
2.329	59.421
2.321	60.499
2.312	61.528
2.304	62.381
2.296	62.961
2.288	63.258
2.28	63.124
2.272	62.382
2.264	61.589
2.256	60.879
2.248	60.551
2.24	60.204
2.233	59.268
2.225	58.167
2.217	57.788
2.21	58.251
2.202	59.201
2.195	60.435
2.187	61.82
2.18	63.073
2.173	63.973
2.166	64.613
2.158	64.912
2.151	65.081
2.144	65.049
2.137	65.043
2.13	65.013
2.123	64.977
2.116	65.059
2.109	65.038
2.102	65.257
2.095	65.476
2.089	65.643
2.082	65.586
2.06	66.607
2.028	65.05
1.996	64.035
1.964	62.617
1.932	60.728
1.9	60.392
1.868	62.17
1.836	63.163
1.804	63.033
1.772	61.867
1.74	61.324
1.708	60.882
1.676	59.901
1.644	58.445
1.612	58.012
1.58	56.57
1.548	55.902
1.516	54.686
1.484	52.799
1.452	51.23
1.42	48.872
1.388	48.384
1.356	46.891
1.324	46.018
1.292	44.352
1.26	43.17
1.228	42.006
1.196	40.06
1.164	38.35
1.132	37.845
1.1	37.103
1.068	36.875
1.036	36.477
1.004	36.177
0.972	36.028
0.94	35.693
0.908	35.488
0.876	35.569
0.844	35.754
0.812	35.733
0.795	35.351
0.787	34.93
0.779	34.698
0.771	34.284
0.763	33.991
0.755	33.798
0.747	33.85
0.739	33.791
0.731	33.94
0.723	33.413
0.715	33.746
0.707	33.686
0.699	33.945
0.691	34.063
0.683	34.357
0.675	34.759
0.667	34.982
0.659	35.321
0.651	35.55
0.643	35.624
0.635	36.028
0.627	36.128
0.619	36.296
0.611	36.532
0.603	36.735
0.595	37.123
0.587	37.327
0.579	37.502
0.571	37.547
0.563	37.344
0.555	36.914
0.547	36.988
0.539	36.988
0.531	37.023
0.523	36.463
0.515	36.233
0.507	35.644
0.499	35.443
0.491	34.726
0.483	34.135
0.475	33.112
0.467	32.381
0.459	31.599
0.451	30.814
0.443	29.891
0.435	29.026
0.427	28.15
0.419	27.142
0.411	26.227
0.403	24.992
