Name: Gypsum (selenite) CaSO4.2H2O
Type: Mineral
Class: Sulfates
Particle Size: Fine  (less than 2 micrometers)
Sample No.: gypsum.2
Owner: JHU
Wavelength Range: IR
Origin: Washington Co., Vermont, from Hunt and Salisbury Collection
Description: The sample appears to be pure semi-transparent
Measurement: Transmission
X Units: Wavelength (micrometers)
Y Units: Transmittance (percent)
wavelength	value
25.0442	86.742
24.3388	86.2849
23.6719	86.3943
23.0407	87.281
22.4422	86.5115
21.8741	86.447
21.334	86.7205
20.8199	87.9568
20.33	88.5466
19.8627	89.5447
19.4163	90.4646
18.9896	90.8865
18.5812	91.0007
18.19	90.9627
17.815	90.3797
17.4551	89.2
17.1094	86.7117
16.7772	73.3397
16.4576	70.6307
16.15	82.7967
15.8537	86.2859
15.568	89.6931
15.2925	82.3787
15.0265	72.5877
14.7697	84.5408
14.5214	91.8992
14.2814	93.3425
14.0492	93.6433
13.8244	94.1038
13.6067	94.3987
13.3957	94.7893
13.1912	95.0056
12.9929	95.0295
12.8004	95.1345
12.6135	95.178
12.432	95.3713
12.2557	95.4158
12.0843	95.5217
11.9176	95.5759
11.7555	95.5374
11.5977	95.6936
11.444	94.5544
11.2944	95.5999
11.1487	95.7678
11.0067	95.7146
10.8682	95.8381
10.7332	95.3591
10.6015	95.5876
10.473	95.3259
10.3476	95.1487
10.2251	94.6702
10.1056	93.7507
9.98873	91.4651
9.87458	90.4509
9.763	92.4045
9.65392	91.0447
9.54724	89.1311
9.44291	85.8972
9.34082	79.1346
9.24091	65.6092
9.14312	48.3539
9.04739	41.3212
8.95363	32.3642
8.8618	31.516
8.77183	26.207
8.68368	24.3828
8.59727	28.4531
8.51257	36.4423
8.42951	50.0638
8.34807	63.6395
8.26819	74.0545
8.18981	81.8064
8.11292	87.551
8.03745	90.3467
7.96337	91.8679
7.89064	92.8821
7.81924	93.6426
7.74911	94.1084
7.68023	94.5623
7.61256	94.9453
7.54608	95.292
7.48074	95.5247
7.41653	95.7332
7.35341	95.6973
7.29136	95.6846
7.23034	95.5361
7.17033	94.9795
7.11132	94.2344
7.05327	93.2148
6.99616	91.9622
6.93996	91.4338
6.88467	91.3584
6.83024	91.8045
6.77667	92.6504
6.72393	93.9275
6.67201	95.0056
6.62089	95.6833
6.57054	96.1687
6.52095	96.2888
6.4721	96.3457
6.42398	96.4912
6.37657	96.4822
6.32986	96.1199
6.28382	95.5527
6.23845	93.9277
6.19373	85.5877
6.14965	81.6084
6.10619	90.5674
6.06334	93.6621
6.02109	94.5488
5.97942	94.6501
5.93832	92.3926
5.89778	95.2087
5.8578	96.5637
5.81835	97.1074
5.77943	97.321
5.74103	97.5041
5.70314	97.6609
5.66574	97.78
5.62883	97.823
5.5924	97.7849
5.55644	97.8523
5.52093	97.9346
5.48588	97.9158
5.45127	97.99
5.41709	98.0449
5.38334	98.0798
5.35	98.0994
5.31708	98.1179
5.28456	98.2139
5.25243	98.2331
5.2207	98.2439
5.18934	98.2263
5.15836	98.2656
5.12775	98.3086
5.09749	98.3601
5.0676	98.2869
5.03805	98.2751
5.00884	98.2839
4.97998	98.2664
4.95144	98.3318
4.92322	98.3215
4.89533	98.2449
4.86775	98.2522
4.84048	98.1853
4.81351	98.1291
4.78684	97.9446
4.76047	97.7068
4.73439	97.5373
4.70859	97.4695
4.68306	97.531
4.65782	97.5613
4.63284	97.655
4.60814	97.7136
4.58369	97.6648
4.5595	97.5706
4.53557	97.4299
4.51188	97.3664
4.48845	97.3445
4.46525	97.4778
4.44229	97.4519
4.41957	97.6428
4.39708	97.7527
4.37481	97.8889
4.35277	97.9636
4.33096	98.094
4.30935	98.2131
4.28797	98.3254
4.26679	98.3708
4.24583	98.4978
4.22506	98.5369
4.2045	98.5608
4.18414	98.6589
4.16398	98.7327
4.14401	98.7165
4.12423	98.7156
4.10464	98.6697
4.08523	98.676
4.066	98.6697
4.04696	98.6794
4.02809	98.7302
4.0094	98.741
3.99088	98.6389
3.97253	98.6038
3.95435	98.7385
3.93634	98.7761
3.91848	98.7859
3.90079	98.7136
3.88326	98.8713
3.86589	98.7781
3.84867	98.7283
3.8316	98.8328
3.81468	98.7742
3.79791	98.8728
3.78129	98.9499
3.76482	98.8147
3.74848	98.8337
3.73229	98.8572
3.71624	98.782
3.70032	98.7737
3.68454	98.824
3.6689	98.7756
3.65338	98.781
3.638	98.7541
3.62275	98.7234
3.60762	98.7136
3.59262	98.7615
3.57775	98.7634
3.56299	98.7361
3.54836	98.7244
3.53385	98.6999
3.51945	98.7112
3.50517	98.8142
3.49101	98.7869
3.47696	98.7068
3.46303	98.5925
3.4492	98.6936
3.43549	98.6858
3.42188	98.7302
3.40838	98.5544
3.39499	98.4377
3.38171	98.3816
3.36852	98.3518
3.35544	98.0925
3.34246	98.0178
3.32958	97.9729
3.3168	97.8206
3.30411	97.7009
3.29153	97.5784
3.27903	97.51
3.26664	97.2732
3.25433	97.1482
3.24212	96.988
3.23	96.6892
3.21797	96.4885
3.20603	96.1858
3.19418	95.8337
3.18241	95.5974
3.17074	95.2361
3.15914	94.6599
3.14763	94.1169
3.13621	93.6912
3.12487	93.2078
3.11361	92.8679
3.10243	92.0603
3.09133	91.2742
3.0803	90.3982
3.06936	90.8162
3.0585	90.3836
3.04771	89.8884
3.037	89.0672
3.02636	88.4324
3.0158	87.4666
3.00531	86.5174
2.99489	85.697
2.98454	85.1961
2.97427	84.0838
2.96407	81.8826
2.95393	77.9744
2.94387	72.9734
2.93387	70.6092
2.92394	74.2772
2.91408	78.9822
2.90429	82.0047
2.89456	83.3367
2.88489	83.5388
2.87529	82.657
2.86576	81.0711
2.85628	79.949
2.84687	78.0984
2.83752	74.2469
2.82823	69.2069
2.81901	65.7381
2.80984	66.8123
2.80073	71.6033
2.79168	75.868
2.78269	76.9744
2.77376	76.5545
2.76488	77.6131
2.75606	81.6482
2.7473	86.3211
2.73859	89.825
2.72994	91.6257
2.72134	93.0642
2.7128	93.8064
2.70431	94.3201
2.69587	94.7351
2.68748	94.9334
2.67915	95.2859
2.67087	95.4568
2.66264	95.446
2.65446	95.4617
2.64633	95.6726
2.63825	95.7976
2.63021	95.7029
2.62223	95.8132
2.6143	95.9031
2.60641	95.8787
2.59857	95.7703
2.59078	96.2029
2.58304	96.1013
2.57534	96.032
2.56768	95.9998
2.56008	95.7322
2.55251	95.8767
2.54499	95.908
2.53752	96.2361
2.53009	95.7986
2.5227	95.7244
2.51536	95.9138
2.50806	95.8611
2.5008	95.7869
2.49358	95.8455
2.4864	96.0662
2.47927	95.572
2.47218	95.7263
2.46512	95.6248
2.45811	95.8318
2.45114	95.7966
2.4442	95.658
2.43731	95.6814
2.43045	95.7947
2.42363	95.8611
2.41685	95.8123
2.41011	95.7849
2.40341	95.8943
2.39674	95.8748
2.39011	95.6794
2.38352	95.8396
2.37696	95.658
2.37044	95.6677
2.36395	95.738
2.35751	95.8162
2.35109	95.5466
2.34471	96.2283
2.33836	95.7029
2.33205	95.3611
2.32578	95.8767
2.31953	95.9021
2.31332	96.0271
2.30714	95.5115
2.301	96.2908
2.29489	95.7302
2.28881	96.1248
2.28276	95.5623
2.27675	96.033
2.27076	95.7126
2.26481	96.0798
2.25889	96.0095
2.253	96.1736
2.24714	96.0388
2.24131	95.8826
2.23551	95.9861
2.22974	96.4783
2.224	95.8689
2.21829	95.822
2.21261	96.1423
2.20696	96.0701
2.20134	96.1345
2.19574	96.0583
2.19018	96.033
2.18464	96.0701
2.17913	95.9373
2.17365	96.3201
2.16819	96.3513
2.16277	96.6365
2.15737	96.656
2.15199	96.281
2.14665	96.199
2.14133	96.3787
2.13603	96.3943
2.13077	96.2029
2.12552	96.4099
2.12031	96.2576
2.11512	96.4451
2.10995	96.7029
2.10481	96.531
2.0997	96.8552
2.09461	96.7458
2.08954	96.7771
2.0845	96.8123
2.07948	96.9646
