Name: Almandine Fe3+2Al2(SiO4)3
Type: Mineral
Class: Silicates
Subclass: Nesosilicates (Isolated Tetrahedra) (Garnet Group)
Particle Size: Solids
Sample No.: almandine.1
Owner: JHU
Wavelength Range: IR
Origin: Sample from Stikine River, Fort Wrangell, Alaska, USA via the
Description: The sample was a single deep maroon crystal about 2 cm
Measurement: Bidirectional reflectance
X Units: Wavelength (micrometers)
Y Units: Reflectance (percent)
wavelength	value
25.044	18.9707
24.339	22.5009
23.672	26.6913
23.041	33.934
22.442	49.35
21.874	53.7147
21.334	52.3441
20.82	65.4788
20.33	66.5721
19.863	64.6417
19.416	53.2608
18.99	36.8312
18.581	30.8368
18.19	12.0757
17.815	25.051
17.455	45.6742
17.109	48.5072
16.777	41.4904
16.458	24.7802
16.15	7.0566
15.854	6.7102
15.568	7.0676
15.292	6.4385
15.027	8.122
14.77	9.3967
14.521	10.3945
14.281	11.2778
14.049	12.0688
13.824	12.7312
13.607	13.4048
13.396	14.1482
13.191	14.8496
12.993	15.5839
12.8	16.3818
12.614	17.331
12.432	18.4355
12.256	19.7163
12.084	21.4892
11.918	23.934
11.755	27.7714
11.598	34.6566
11.444	46.1093
11.294	39.0192
11.149	46.4799
11.007	54.2674
10.868	45.6073
10.733	20.7133
10.602	16.394
10.473	31.0722
10.348	56.7882
10.225	64.8297
10.106	66.2574
9.989	65.6878
9.875	63.2064
9.763	58.8604
9.654	52.2679
9.547	45.1473
9.443	37.5541
9.341	26.8051
9.241	14.2387
9.143	3.5376
9.047	1.4133
8.954	2.3015
8.862	3.2681
8.772	4.0029
8.684	4.6216
8.597	5.1128
8.513	5.5674
8.43	5.9626
8.348	6.3306
8.268	6.6108
8.19	6.8974
8.113	7.1426
8.037	7.3271
7.963	7.56
7.891	7.7583
7.819	7.9663
7.749	8.1382
7.68	8.3122
7.613	8.4538
7.546	8.5647
7.481	8.6396
7.417	8.7229
7.353	8.8264
7.291	8.8955
7.23	8.9768
7.17	9.0337
7.111	9.1509
7.053	9.2021
6.996	9.3095
6.94	9.376
6.885	9.4209
6.83	9.4787
6.777	9.5451
6.724	9.6006
6.672	9.6333
6.621	9.6782
6.571	9.6843
6.521	9.7778
6.472	9.8215
6.424	9.8406
6.377	9.9209
6.33	9.9985
6.284	10.0498
6.238	10.0976
6.194	10.1164
6.15	10.1518
6.106	10.166
6.063	10.229
6.021	10.271
5.979	10.2878
5.938	10.2436
5.898	10.2929
5.858	10.372
5.818	10.3396
5.779	10.4323
5.741	10.4851
5.703	10.5322
5.666	10.5503
5.629	10.5581
5.592	10.5769
5.556	10.5835
5.521	10.5962
5.486	10.6081
5.451	10.6462
5.417	10.6306
5.383	10.6675
5.35	10.685
5.317	10.7075
5.285	10.7402
5.252	10.7358
5.221	10.759
5.189	10.7744
5.158	10.7849
5.128	10.8264
5.097	10.8069
5.068	10.8235
5.038	10.8467
5.009	10.8354
4.98	10.8445
4.951	10.8569
4.923	10.8484
4.895	10.8877
4.868	10.8816
4.84	10.9038
4.814	10.9175
4.787	10.9384
4.76	10.9314
4.734	10.9409
4.709	10.9507
4.683	10.9702
4.658	10.9858
4.633	11.0036
4.608	11.0293
4.584	11.041
4.56	11.041
4.536	11.0525
4.512	11.0312
4.488	11.0625
4.465	11.0666
4.442	11.0786
4.42	11.0644
4.397	11.082
4.375	11.1018
4.353	11.0879
4.331	11.0886
4.309	11.0986
4.288	11.1013
4.267	11.1096
4.246	11.1352
4.225	11.1162
4.205	11.1552
4.184	11.1391
4.164	11.1631
4.144	11.1672
4.124	11.1611
4.105	11.1533
4.085	11.1882
4.066	11.2014
4.047	11.207
4.028	11.217
4.009	11.2077
3.991	11.2036
3.973	11.1965
3.954	11.2046
3.936	11.2002
3.918	11.2177
3.901	11.2148
3.883	11.227
3.866	11.229
3.849	11.2177
3.832	11.2275
3.815	11.2309
3.798	11.2302
3.781	11.227
3.765	11.2468
3.748	11.2485
3.732	11.2505
3.716	11.2466
3.7	11.2424
3.685	11.2412
3.669	11.23
3.653	11.2485
3.638	11.2558
3.623	11.2321
3.608	11.2363
3.593	11.2466
3.578	11.2297
3.563	11.2226
3.548	11.2109
3.534	11.1924
3.519	11.1916
3.505	11.2007
3.491	11.2256
3.477	11.2321
3.463	11.1987
3.449	11.209
3.435	11.1943
3.422	11.2075
3.408	11.2441
3.395	11.2417
3.382	11.2329
3.369	11.2695
3.355	11.2348
3.342	11.2165
3.33	11.2014
3.317	11.1855
3.304	11.1867
3.292	11.1728
3.279	11.1701
3.267	11.1584
3.254	11.1296
3.242	11.1299
3.23	11.1184
3.218	11.1042
3.206	11.0925
3.194	11.0703
3.182	11.0691
3.171	11.0586
3.159	11.0434
3.148	11.0429
3.136	11.0237
3.125	11.0151
3.114	10.9978
3.102	10.9905
3.091	10.9653
3.08	10.9594
3.069	10.9341
3.058	10.9074
3.048	10.9162
3.037	10.8769
3.026	10.8938
3.016	10.8564
3.005	10.8381
2.995	10.8393
2.985	10.8134
2.974	10.791
2.964	10.7756
2.954	10.7705
2.944	10.7519
2.934	10.6963
2.924	10.6938
2.914	10.6635
2.904	10.667
2.895	10.6484
2.885	10.6408
2.875	10.6074
2.866	10.5813
2.856	10.5774
2.847	10.5432
2.838	10.5305
2.828	10.4907
2.819	10.4709
2.81	10.4521
2.801	10.4319
2.792	10.4209
2.783	10.3926
2.774	10.3623
2.765	10.3388
2.756	10.2727
2.747	10.299
2.739	10.2229
2.73	10.2717
2.721	10.2021
2.713	10.2209
2.704	10.1709
2.696	10.1367
2.687	10.1367
2.679	10.0991
2.671	10.0444
2.663	10.0649
2.654	10.0537
2.646	10.0195
2.638	10.0127
2.63	9.9326
2.622	9.9482
2.614	9.9399
2.606	9.8408
2.599	9.8847
2.591	9.854
2.583	9.8081
2.575	9.8247
2.568	9.8032
2.56	9.7588
2.553	9.7383
2.545	9.7524
2.538	9.7129
2.53	9.6704
2.523	9.6821
2.515	9.6758
2.508	9.6758
2.501	9.6826
2.494	9.6211
2.486	9.6054
2.479	9.6035
2.472	9.6006
2.465	9.5605
2.458	9.5356
2.451	9.5517
2.444	9.5234
2.437	9.5019
2.43	9.4985
2.424	9.4868
2.417	9.5161
2.41	9.5044
2.403	9.4961
2.397	9.4575
2.39	9.4165
2.384	9.4438
2.377	9.4575
2.37	9.4302
2.364	9.3969
2.358	9.4258
2.351	9.4248
2.345	9.4614
2.338	9.4844
2.332	9.4184
2.326	9.4179
2.32	9.417
2.313	9.457
2.307	9.4336
2.301	9.4824
2.295	9.4746
2.289	9.4785
2.283	9.4668
2.277	9.5019
2.271	9.4443
2.265	9.5185
2.259	9.5215
2.253	9.4844
2.247	9.4814
2.241	9.5127
2.236	9.5205
2.23	9.497
2.224	9.5224
2.218	9.541
2.213	9.5586
2.207	9.5556
2.201	9.5781
2.196	9.582
2.19	9.6025
2.185	9.6533
2.179	9.5908
2.174	9.6308
2.168	9.6894
2.163	9.6885
2.157	9.709
2.152	9.6152
2.147	9.6699
2.141	9.707
2.136	9.7158
2.131	9.7304
2.126	9.7656
2.12	9.7832
2.115	9.7363
2.11	9.7773
2.105	9.7636
2.1	9.7929
2.095	9.8125
2.09	9.8574
2.085	9.8525
2.079	9.8711
