Name: Spodumene LiAlSi2O6
Type: Mineral
Class: Silicates
Subclass: Inosilicates (Framework silicates); Pyroxene Group
Particle Size: Fine  (0 - 74 Micrometers)
Sample No.: spodum.1
Owner: JHU
Wavelength Range: IR
Origin: Anita Mine, Pala Chief Hill, Pala, San Diego Co., California, USA
Description: The hand sample was 3 cm x 1 cm x 1 cm, transparent,
Measurement: Bidirectional reflectance
X Units: Wavelength (micrometers)
Y Units: Reflectance (percent)
wavelength	value
25.0442	3.2578
24.3388	2.6699
23.6719	2.8159
23.0407	2.7197
22.4422	2.9211
21.8741	3.1409
21.334	3.7629
20.8199	3.9536
20.33	4.0947
19.8627	3.5093
19.4163	3.1284
18.9896	3.4038
18.5812	3.3867
18.19	3.2959
17.815	3.3081
17.4551	3.4165
17.1094	3.4641
16.7772	3.5308
16.4576	3.5703
16.15	3.3855
15.8537	2.8257
15.568	2.2476
15.2925	2.24
15.0265	2.2966
14.7697	2.0442
14.5214	1.5637
14.2814	1.8728
14.0492	2.4912
13.8244	3.0461
13.6067	3.4648
13.3957	3.7607
13.1912	3.948
12.9929	3.927
12.8004	3.7668
12.6135	3.8071
12.432	3.6269
12.2557	3.4009
12.0843	3.1023
11.9176	2.6514
11.7555	2.3115
11.5977	2.0867
11.444	2.0786
11.2944	2.3955
11.1487	2.5613
11.0067	2.7786
10.8682	3.0002
10.7332	3.085
10.6015	3.1851
10.473	3.3784
10.3476	3.4873
10.2251	3.3923
10.1056	2.9956
9.98873	2.4685
9.87458	2.4558
9.763	2.9094
9.65392	3.0974
9.54724	3.167
9.44291	3.1575
9.34082	3.2331
9.24091	3.365
9.14312	4.0498
9.04739	4.3132
8.95363	4.3945
8.8618	4.1924
8.77183	3.6899
8.68368	3.3298
8.59727	3.1211
8.51257	3.1335
8.42951	3.5144
8.34807	4.1658
8.26819	4.6128
8.18981	4.2707
8.11292	3.6814
8.03745	3.0644
7.96337	2.4966
7.89064	2.0207
7.81924	2.0203
7.74911	2.1748
7.68023	2.3882
7.61256	2.8367
7.54608	3.3203
7.48074	3.7317
7.41653	4.1352
7.35341	4.5246
7.29136	4.8906
7.23034	5.1929
7.17033	5.342
7.11132	5.4123
7.05327	5.6372
6.99616	5.9541
6.93996	6.1631
6.88467	6.5222
6.83024	6.8725
6.77667	7.3113
6.72393	7.7597
6.67201	7.9824
6.62089	8.1052
6.57054	8.1767
6.52095	8.1787
6.4721	8.0725
6.42398	7.8459
6.37657	7.8222
6.32986	7.9521
6.28382	7.9353
6.23845	8.0176
6.19373	8.1389
6.14965	8.3174
6.10619	8.3523
6.06334	8.5781
6.02109	8.7685
5.97942	8.8203
5.93832	8.6377
5.89778	8.3276
5.8578	8.3252
5.81835	8.4917
5.77943	8.4258
5.74103	7.8962
5.70314	7.3447
5.66574	7.3501
5.62883	7.1767
5.5924	6.8801
5.55644	6.8139
5.52093	7.0803
5.48588	7.6138
5.45127	8.0742
5.41709	8.3388
5.38334	8.2112
5.35	8.2964
5.31708	8.5979
5.28456	9.0295
5.25243	10.8821
5.2207	12.0283
5.18934	12.403
5.15836	12.6994
5.12775	12.9004
5.09749	13.0764
5.0676	13.2092
5.03805	13.1591
5.00884	13.1784
4.97998	13.1743
4.95144	13.4292
4.92322	13.7212
4.89533	13.4753
4.86775	12.8137
4.84048	12.49
4.81351	12.5705
4.78684	12.4865
4.76047	12.7063
4.73439	13.4773
4.70859	13.9943
4.68306	13.9978
4.65782	13.9355
4.63284	14.1562
4.60814	14.6206
4.58369	14.7588
4.5595	14.8046
4.53557	14.6486
4.51188	14.8449
4.48845	15.3613
4.46525	15.843
4.44229	16.5478
4.41957	17.2605
4.39708	17.8845
4.37481	18.3393
4.35277	18.613
4.33096	18.8376
4.30935	18.9887
4.28797	19.0869
4.26679	19.163
4.24583	19.2221
4.22506	19.2895
4.2045	19.3437
4.18414	19.3916
4.16398	19.4304
4.14401	19.4277
4.12423	19.4494
4.10464	19.4816
4.08523	19.5104
4.066	19.5395
4.04696	19.5764
4.02809	19.5908
4.0094	19.5961
3.99088	19.5986
3.97253	19.6254
3.95435	19.6271
3.93634	19.6457
3.91848	19.6469
3.90079	19.6677
3.88326	19.6623
3.86589	19.6518
3.84867	19.6708
3.8316	19.736
3.81468	19.7958
3.79791	19.8366
3.78129	19.8894
3.76482	19.9218
3.74848	19.9531
3.73229	19.978
3.71624	19.9753
3.70032	19.9616
3.68454	19.9636
3.6689	19.9697
3.65338	19.9951
3.638	19.9973
3.62275	20.0092
3.60762	20.0061
3.59262	20.0053
3.57775	19.9824
3.56299	19.934
3.54836	19.8923
3.53385	19.8605
3.51945	19.7373
3.50517	19.3413
3.49101	19.3967
3.47696	19.3774
3.46303	19.4404
3.4492	19.3513
3.43549	19.1303
3.42188	18.7365
3.40838	18.6608
3.39499	18.9675
3.38171	18.8928
3.36852	18.8142
3.35544	19.258
3.34246	19.3894
3.32958	19.4196
3.3168	19.4001
3.30411	19.394
3.29153	19.3388
3.27903	19.3054
3.26664	19.2624
3.25433	19.1997
3.24212	19.1489
3.23	19.0864
3.21797	19.0485
3.20603	18.9687
3.19418	18.927
3.18241	18.8845
3.17074	18.8208
3.15914	18.758
3.14763	18.7048
3.13621	18.635
3.12487	18.5834
3.11361	18.5253
3.10243	18.4799
3.09133	18.4311
3.0803	18.4133
3.06936	18.3796
3.0585	18.3313
3.04771	18.3115
3.037	18.2956
3.02636	18.2592
3.0158	18.215
3.00531	18.1701
2.99489	18.1425
2.98454	18.1181
2.97427	18.0798
2.96407	18.038
2.95393	18.0334
2.94387	18.0297
2.93387	17.9921
2.92394	18.0283
2.91408	18.0498
2.90429	18.1076
2.89456	18.1284
2.88489	18.165
2.87529	18.1577
2.86576	18.1796
2.85628	18.2456
2.84687	18.3315
2.83752	18.3969
2.82823	18.4787
2.81901	18.541
2.80984	18.6169
2.80073	18.6665
2.79168	18.729
2.78269	18.7441
2.77376	18.7409
2.76488	18.2724
2.75606	18.1523
2.7473	18.809
2.73859	18.8837
2.72994	19.205
2.72134	19.4106
2.7128	19.4267
2.70431	18.8984
2.69587	20.3205
2.68748	21.5637
2.67915	21.9721
2.67087	22.1696
2.66264	22.374
2.65446	22.4912
2.64633	22.5522
2.63825	22.6118
2.63021	22.5685
2.62223	22.6728
2.6143	22.7036
2.60641	22.6708
2.59857	22.7363
2.59078	22.7817
2.58304	22.7726
2.57534	22.8293
2.56768	22.852
2.56008	22.8491
2.55251	22.8759
2.54499	22.9601
2.53752	22.9894
2.53009	22.8994
2.5227	22.9455
2.51536	23.0034
2.50806	22.9946
2.5008	23.0497
2.49358	23.0341
2.4864	23.048
2.47927	23.1
2.47218	23.0873
2.46512	23.1193
2.45811	23.1176
2.45114	23.1303
2.4442	23.121
2.43731	23.0969
2.43045	23.1486
2.42363	23.1437
2.41685	23.2197
2.41011	23.246
2.40341	23.2534
2.39674	23.2626
2.39011	23.2529
2.38352	23.1982
2.37696	23.2746
2.37044	23.3068
2.36395	23.2912
2.35751	23.3662
2.35109	23.3749
2.34471	23.3422
2.33836	23.3061
2.33205	23.3544
2.32578	23.3144
2.31953	23.3271
2.31332	23.3735
2.30714	23.3603
2.301	23.4111
2.29489	23.4033
2.28881	23.4482
2.28276	23.4404
2.27675	23.4697
2.27076	23.4472
2.26481	23.4462
2.25889	23.5004
2.253	23.5043
2.24714	23.4829
2.24131	23.5844
2.23551	23.5825
2.22974	23.5986
2.224	23.5927
2.21829	23.6425
2.21261	23.6098
2.20696	23.5727
2.20134	23.6425
2.19574	23.6782
2.19018	23.7206
2.18464	23.8124
2.17913	23.7587
2.17365	23.7685
2.16819	23.9179
2.16277	23.8808
2.15737	23.9267
2.15199	23.9003
2.14665	23.8837
2.14133	23.914
2.13603	24.0029
2.13077	24.1201
2.12552	24.1933
2.12031	24.1157
2.11512	24.1786
2.10995	24.2314
2.10481	24.2187
2.0997	24.2836
2.09461	24.4907
2.08954	24.4243
2.0845	24.4555
2.07948	24.518
