Name: Chromite Fe+2Cr2O4
Type: Mineral
Class: Oxides (Spinel Group)
Particle Size: Solid (fracture surface)
Sample No.: chromite.1
Owner: JHU
Wavelength Range: IR
Origin: Smithsonian NMNH 117075; Sample from Tiebaghi Mine, New
Description: The sample was one large (3.5 cm x 2 cm x 2 cm) piece
Measurement: Bidirectional reflectance
X Units: Wavelength (micrometers)
Y Units: Reflectance (percent)
wavelength	value
25.0442	33.7831
24.3388	35.0595
23.6719	36.7987
23.0407	38.8065
22.4422	37.5609
21.8741	38.7558
21.334	45.4667
20.8199	58.7635
20.33	69.5399
19.8627	71.2757
19.4163	69.5919
18.9896	71.0186
18.5812	69.202
18.19	61.9347
17.815	43.3595
17.4551	15.7922
17.1094	14.9152
16.7772	19.7648
16.4576	25.5493
16.15	36.8009
15.8537	58.4613
15.568	63.9564
15.2925	65.4129
15.0265	66.0167
14.7697	65.0535
14.5214	63.2904
14.2814	61.2628
14.0492	58.5406
13.8244	55.2179
13.6067	51.9383
13.3957	48.2213
13.1912	39.0297
12.9929	23.5742
12.8004	6.6838
12.6135	1.8359
12.432	3.0395
12.2557	4.2788
12.0843	5.2407
11.9176	5.9931
11.7555	6.6079
11.5977	7.1675
11.444	7.6748
11.2944	8.0986
11.1487	8.436
11.0067	8.7461
10.8682	8.9824
10.7332	9.2046
10.6015	9.3926
10.473	9.5766
10.3476	9.7971
10.2251	10.0019
10.1056	10.219
9.98873	10.3799
9.87458	10.4926
9.763	10.5698
9.65392	10.6384
9.54724	10.7514
9.44291	10.872
9.34082	10.9057
9.24091	10.9814
9.14312	11.0461
9.04739	11.186
8.95363	11.3974
8.8618	11.4338
8.77183	11.4182
8.68368	11.4699
8.59727	11.5593
8.51257	11.646
8.42951	11.7297
8.34807	11.7895
8.26819	11.8418
8.18981	11.9184
8.11292	11.9836
8.03745	12.0075
7.96337	12.0295
7.89064	12.0952
7.81924	12.1709
7.74911	12.2727
7.68023	12.3457
7.61256	12.3615
7.54608	12.3637
7.48074	12.3806
7.41653	12.4065
7.35341	12.4236
7.29136	12.4287
7.23034	12.4131
7.17033	12.4463
7.11132	12.4831
7.05327	12.4931
6.99616	12.5288
6.93996	12.5244
6.88467	12.5454
6.83024	12.5993
6.77667	12.6582
6.72393	12.6633
6.67201	12.6399
6.62089	12.6504
6.57054	12.6494
6.52095	12.6936
6.4721	12.6987
6.42398	12.6801
6.37657	12.7136
6.32986	12.7534
6.28382	12.7734
6.23845	12.7705
6.19373	12.7436
6.14965	12.758
6.10619	12.7444
6.06334	12.7544
6.02109	12.7446
5.97942	12.7378
5.93832	12.7116
5.89778	12.7483
5.8578	12.7903
5.81835	12.7234
5.77943	12.811
5.74103	12.9189
5.70314	12.9729
5.66574	12.9653
5.62883	12.9843
5.5924	12.9792
5.55644	12.9738
5.52093	12.9797
5.48588	12.9951
5.45127	12.987
5.41709	12.9817
5.38334	13.0024
5.35	12.9875
5.31708	13.0007
5.28456	13.0097
5.25243	13.0114
5.2207	13.0039
5.18934	13.0005
5.15836	13.02
5.12775	13.0153
5.09749	12.989
5.0676	12.9741
5.03805	13.0022
5.00884	12.9997
4.97998	12.9748
4.95144	12.9692
4.92322	12.9707
4.89533	12.9775
4.86775	12.9736
4.84048	12.9846
4.81351	12.9743
4.78684	12.9829
4.76047	12.9836
4.73439	12.9853
4.70859	12.9826
4.68306	12.9611
4.65782	12.9758
4.63284	12.9785
4.60814	12.9907
4.58369	12.9946
4.5595	12.9824
4.53557	12.9743
4.51188	12.9758
4.48845	12.9829
4.46525	12.9756
4.44229	12.9694
4.41957	12.9804
4.39708	12.9919
4.37481	12.989
4.35277	12.9697
4.33096	12.9585
4.30935	12.9611
4.28797	12.9609
4.26679	12.9687
4.24583	12.9653
4.22506	12.9658
4.2045	12.9665
4.18414	12.9653
4.16398	12.9521
4.14401	12.9414
4.12423	12.938
4.10464	12.938
4.08523	12.9592
4.066	12.9516
4.04696	12.9482
4.02809	12.9438
4.0094	12.9416
3.99088	12.9392
3.97253	12.9267
3.95435	12.9257
3.93634	12.936
3.91848	12.9399
3.90079	12.9404
3.88326	12.9414
3.86589	12.9304
3.84867	12.9199
3.8316	12.9228
3.81468	12.9155
3.79791	12.9179
3.78129	12.914
3.76482	12.893
3.74848	12.8955
3.73229	12.8884
3.71624	12.8779
3.70032	12.8589
3.68454	12.854
3.6689	12.8349
3.65338	12.832
3.638	12.8369
3.62275	12.8193
3.60762	12.8056
3.59262	12.8022
3.57775	12.7998
3.56299	12.7754
3.54836	12.7573
3.53385	12.7485
3.51945	12.7182
3.50517	12.7568
3.49101	12.7922
3.47696	12.7907
3.46303	12.771
3.4492	12.7578
3.43549	12.7509
3.42188	12.8073
3.40838	12.8574
3.39499	12.8423
3.38171	12.8405
3.36852	12.8969
3.35544	12.8557
3.34246	12.8076
3.32958	12.7553
3.3168	12.7282
3.30411	12.6963
3.29153	12.7004
3.27903	12.6755
3.26664	12.6516
3.25433	12.6233
3.24212	12.622
3.23	12.6115
3.21797	12.5742
3.20603	12.5539
3.19418	12.5439
3.18241	12.5373
3.17074	12.5119
3.15914	12.4853
3.14763	12.477
3.13621	12.427
3.12487	12.3996
3.11361	12.3867
3.10243	12.3703
3.09133	12.33
3.0803	12.3022
3.06936	12.2795
3.0585	12.226
3.04771	12.2216
3.037	12.2148
3.02636	12.1994
3.0158	12.1391
3.00531	12.0991
2.99489	12.1057
2.98454	12.08
2.97427	12.0598
2.96407	12.0429
2.95393	12.0171
2.94387	11.9873
2.93387	11.9445
2.92394	11.9145
2.91408	11.8911
2.90429	11.8838
2.89456	11.8598
2.88489	11.8303
2.87529	11.7978
2.86576	11.7815
2.85628	11.7812
2.84687	11.7412
2.83752	11.7207
2.82823	11.6789
2.81901	11.6526
2.80984	11.6252
2.80073	11.6191
2.79168	11.5715
2.78269	11.5342
2.77376	11.5068
2.76488	11.4795
2.75606	11.4297
2.7473	11.4321
2.73859	11.3716
2.72994	11.3828
2.72134	11.3227
2.7128	11.3071
2.70431	11.2749
2.69587	11.2417
2.68748	11.2353
2.67915	11.2163
2.67087	11.1718
2.66264	11.1631
2.65446	11.1592
2.64633	11.1064
2.63825	11.0898
2.63021	11.0395
2.62223	11.0244
2.6143	11.0014
2.60641	10.9629
2.59857	10.9658
2.59078	10.9121
2.58304	10.8735
2.57534	10.8501
2.56768	10.8388
2.56008	10.7993
2.55251	10.7685
2.54499	10.768
2.53752	10.7226
2.53009	10.7036
2.5227	10.6587
2.51536	10.6269
2.50806	10.6435
2.5008	10.6352
2.49358	10.6035
2.4864	10.5761
2.47927	10.5703
2.47218	10.5127
2.46512	10.5088
2.45811	10.4922
2.45114	10.4868
2.4442	10.457
2.43731	10.4555
2.43045	10.416
2.42363	10.4062
2.41685	10.4414
2.41011	10.4145
2.40341	10.3501
2.39674	10.3672
2.39011	10.3598
2.38352	10.3261
2.37696	10.3222
2.37044	10.2812
2.36395	10.2422
2.35751	10.2676
2.35109	10.2812
2.34471	10.2617
2.33836	10.2265
2.33205	10.2558
2.32578	10.2383
2.31953	10.2685
2.31332	10.2627
2.30714	10.1767
2.301	10.209
2.29489	10.2099
2.28881	10.1894
2.28276	10.209
2.27675	10.1718
2.27076	10.208
2.26481	10.2392
2.25889	10.2177
2.253	10.1963
2.24714	10.1416
2.24131	10.1972
2.23551	10.2041
2.22974	10.1582
2.224	10.1894
2.21829	10.2363
2.21261	10.2002
2.20696	10.2031
2.20134	10.1582
2.19574	10.2187
2.19018	10.2353
2.18464	10.1914
2.17913	10.2246
2.17365	10.25
2.16819	10.2656
2.16277	10.2812
2.15737	10.3027
2.15199	10.2275
2.14665	10.2236
2.14133	10.2588
2.13603	10.2988
2.13077	10.2392
2.12552	10.2627
2.12031	10.2578
2.11512	10.2715
2.10995	10.2588
2.10481	10.2549
2.0997	10.3379
2.09461	10.3174
2.08954	10.3613
2.0845	10.3476
2.07948	10.291
