Name: Goethite a-Fe+3O(OH)
Type: Mineral
Class: Hydroxides
Subclass: (Goethite Group)
Particle Size: Fine  (0-74  Micrometers)
Sample No.: goethite.2
Owner: JHU
Wavelength Range: IR
Origin: Sample from Calavi, Bolivia via the Smithsonian (sample no.
Description: The sample was a 2 cm x 2 cm x 2 cm layered botryoidal
Measurement: Bidirectional reflectance
X Units: Wavelength (micrometers)
Y Units: Reflectance (percent)
wavelength	value
25.0442	4.0029
24.3388	4.0102
23.6719	3.8948
23.0407	3.7622
22.4422	3.6467
21.8741	3.6951
21.334	3.7358
20.8199	3.6794
20.33	3.5669
19.8627	3.2473
19.4163	2.9455
18.9896	2.6267
18.5812	2.4319
18.19	2.2087
17.815	2.1355
17.4551	2.0527
17.1094	1.9341
16.7772	1.9211
16.4576	1.8845
16.15	1.8105
15.8537	1.7305
15.568	1.5908
15.2925	1.5237
15.0265	1.4915
14.7697	1.3425
14.5214	1.3723
14.2814	1.4036
14.0492	1.4839
13.8244	1.6186
13.6067	1.7026
13.3957	1.7666
13.1912	1.7869
12.9929	1.7585
12.8004	1.7102
12.6135	1.6553
12.432	1.602
12.2557	1.522
12.0843	1.4707
11.9176	1.4966
11.7555	1.5073
11.5977	1.5085
11.444	1.4817
11.2944	1.437
11.1487	1.3621
11.0067	1.2373
10.8682	1.1555
10.7332	1.1504
10.6015	1.2356
10.473	1.3201
10.3476	1.3936
10.2251	1.4343
10.1056	1.4702
9.98873	1.5239
9.87458	1.6189
9.763	1.7178
9.65392	1.835
9.54724	1.9546
9.44291	2.0894
9.34082	2.2317
9.24091	2.3813
9.14312	2.521
9.04739	2.6555
8.95363	2.7585
8.8618	2.874
8.77183	3.1045
8.68368	3.4321
8.59727	3.7998
8.51257	4.1438
8.42951	4.5344
8.34807	4.8735
8.26819	5.1326
8.18981	5.2678
8.11292	5.31
8.03745	5.3125
7.96337	5.3503
7.89064	5.3347
7.81924	5.2051
7.74911	5.0051
7.68023	4.7471
7.61256	4.4814
7.54608	4.2268
7.48074	4.1396
7.41653	4.1116
7.35341	4.279
7.29136	4.281
7.23034	4.2075
7.17033	4.3003
7.11132	4.2673
7.05327	4.0132
6.99616	3.8506
6.93996	4.0249
6.88467	4.1333
6.83024	4.1257
6.77667	4.1924
6.72393	4.2014
6.67201	4.0723
6.62089	3.9082
6.57054	3.7534
6.52095	3.6802
6.4721	3.7139
6.42398	3.8225
6.37657	3.9382
6.32986	4.0339
6.28382	4.0078
6.23845	3.9531
6.19373	3.8706
6.14965	3.7837
6.10619	3.7095
6.06334	3.727
6.02109	3.8303
5.97942	4.0278
5.93832	4.228
5.89778	4.4001
5.8578	4.5029
5.81835	4.4983
5.77943	4.4587
5.74103	4.3879
5.70314	4.2829
5.66574	4.2119
5.62883	4.1711
5.5924	4.1833
5.55644	4.2842
5.52093	4.4595
5.48588	4.665
5.45127	4.8784
5.41709	5.042
5.38334	5.189
5.35	5.2737
5.31708	5.3462
5.28456	5.3706
5.25243	5.3862
5.2207	5.3872
5.18934	5.4184
5.15836	5.4514
5.12775	5.477
5.09749	5.5185
5.0676	5.5581
5.03805	5.5989
5.00884	5.6501
4.97998	5.6897
4.95144	5.739
4.92322	5.7873
4.89533	5.8518
4.86775	5.8999
4.84048	5.9429
4.81351	5.9797
4.78684	6.011
4.76047	6.0461
4.73439	6.0664
4.70859	6.0886
4.68306	6.1072
4.65782	6.105
4.63284	6.1213
4.60814	6.1203
4.58369	6.1189
4.5595	6.1103
4.53557	6.0969
4.51188	6.0796
4.48845	6.0669
4.46525	6.0395
4.44229	6.0144
4.41957	5.9939
4.39708	5.9736
4.37481	5.9551
4.35277	5.9311
4.33096	5.9089
4.30935	5.8789
4.28797	5.845
4.26679	5.7722
4.24583	5.7822
4.22506	5.7512
4.2045	5.7178
4.18414	5.6631
4.16398	5.6003
4.14401	5.5381
4.12423	5.4687
4.10464	5.3923
4.08523	5.3166
4.066	5.2607
4.04696	5.1831
4.02809	5.1172
4.0094	5.0469
3.99088	4.9612
3.97253	4.8887
3.95435	4.8105
3.93634	4.7153
3.91848	4.625
3.90079	4.5364
3.88326	4.4358
3.86589	4.3489
3.84867	4.2388
3.8316	4.1453
3.81468	4.0561
3.79791	3.9648
3.78129	3.8511
3.76482	3.7615
3.74848	3.6594
3.73229	3.5723
3.71624	3.4707
3.70032	3.3784
3.68454	3.2705
3.6689	3.1885
3.65338	3.104
3.638	3.0181
3.62275	2.9438
3.60762	2.8618
3.59262	2.7947
3.57775	2.7246
3.56299	2.657
3.54836	2.5976
3.53385	2.5254
3.51945	2.4602
3.50517	2.3855
3.49101	2.345
3.47696	2.3096
3.46303	2.2512
3.4492	2.1875
3.43549	2.137
3.42188	2.0725
3.40838	2.0364
3.39499	1.981
3.38171	1.9438
3.36852	1.9011
3.35544	1.8403
3.34246	1.7781
3.32958	1.718
3.3168	1.6714
3.30411	1.6182
3.29153	1.5508
3.27903	1.4919
3.26664	1.4285
3.25433	1.3711
3.24212	1.3215
3.23	1.2561
3.21797	1.2144
3.20603	1.1714
3.19418	1.1389
3.18241	1.1108
3.17074	1.0815
3.15914	1.0642
3.14763	1.0352
3.13621	1.0503
3.12487	1.0337
3.11361	1.0549
3.10243	1.0442
3.09133	1.0374
3.0803	1.0615
3.06936	1.0725
3.0585	1.0842
3.04771	1.1116
3.037	1.126
3.02636	1.1418
3.0158	1.1633
3.00531	1.1863
2.99489	1.2244
2.98454	1.2449
2.97427	1.2707
2.96407	1.2925
2.95393	1.3306
2.94387	1.3547
2.93387	1.3933
2.92394	1.4141
2.91408	1.4597
2.90429	1.5017
2.89456	1.55
2.88489	1.6094
2.87529	1.6494
2.86576	1.7314
2.85628	1.7942
2.84687	1.8838
2.83752	2.0039
2.82823	2.1321
2.81901	2.2761
2.80984	2.4463
2.80073	2.6685
2.79168	2.9314
2.78269	3.1853
2.77376	3.4907
2.76488	3.8433
2.75606	4.2917
2.7473	4.8838
2.73859	5.4707
2.72994	6.2021
2.72134	6.8555
2.7128	7.4243
2.70431	7.8103
2.69587	8.2199
2.68748	8.5085
2.67915	9.2754
2.67087	9.7866
2.66264	10.1408
2.65446	10.3403
2.64633	10.5249
2.63825	10.6936
2.63021	10.8137
2.62223	10.959
2.6143	11.0634
2.60641	11.1299
2.59857	11.2812
2.59078	11.3525
2.58304	11.4167
2.57534	11.4331
2.56768	11.5212
2.56008	11.5395
2.55251	11.5525
2.54499	11.584
2.53752	11.5847
2.53009	11.5522
2.5227	11.5505
2.51536	11.5327
2.50806	11.5102
2.5008	11.4853
2.49358	11.4922
2.4864	11.478
2.47927	11.4702
2.47218	11.4756
2.46512	11.4599
2.45811	11.5258
2.45114	11.5427
2.4442	11.532
2.43731	11.6108
2.43045	11.6096
2.42363	11.6606
2.41685	11.6616
2.41011	11.6972
2.40341	11.6828
2.39674	11.7265
2.39011	11.7973
2.38352	11.8916
2.37696	11.9756
2.37044	12.0698
2.36395	12.1758
2.35751	12.3235
2.35109	12.3672
2.34471	12.4116
2.33836	12.4646
2.33205	12.5027
2.32578	12.5996
2.31953	12.6801
2.31332	12.6604
2.30714	12.7212
2.301	12.8413
2.29489	12.8906
2.28881	12.9309
2.28276	13.0263
2.27675	13.1045
2.27076	13.1601
2.26481	13.2715
2.25889	13.3271
2.253	13.3701
2.24714	13.4575
2.24131	13.5381
2.23551	13.6757
2.22974	13.7234
2.224	13.7295
2.21829	13.8442
2.21261	13.875
2.20696	13.8664
2.20134	13.8923
2.19574	13.9463
2.19018	13.9782
2.18464	14.0625
2.17913	14.1296
2.17365	14.1552
2.16819	14.2043
2.16277	14.2221
2.15737	14.2292
2.15199	14.2465
2.14665	14.2055
2.14133	14.2065
2.13603	14.3276
2.13077	14.2685
2.12552	14.2856
2.12031	14.2343
2.11512	14.2646
2.10995	14.2285
2.10481	14.2397
2.0997	14.2773
2.09461	14.2744
2.08954	14.2905
2.0845	14.2651
2.07948	14.2268
