Name: Muscovite KAl2(Si3Al)O10(OH,F)2
Type: Mineral
Class: Silicates
Subclass: Phyllosilicates (Sheet Silicates); (MicaGroup)
Particle Size: Coarse  (75-250  Micrometers)
Sample No.: muscov.2
Owner: JHU
Wavelength Range: IR
Origin: Fremont Co., Colorado via Hunt and Salisbury Collection #146B
Description: The hand sample appeared to be pure, transparent
Measurement: Bidirectional reflectance
X Units: Wavelength (micrometers)
Y Units: Reflectance (percent)
wavelength	value
25.0442	4.1724
24.3388	4.05
23.6719	4.0752
23.0407	3.665
22.4422	3.6382
21.8741	4.0784
21.334	4.5283
20.8199	5.0591
20.33	4.9075
19.8627	4.3083
19.4163	4.144
18.9896	4.928
18.5812	5.6909
18.19	5.7871
17.815	5.7453
17.4551	5.3154
17.1094	5.0661
16.7772	4.4182
16.4576	3.4028
16.15	2.5752
15.8537	2.0159
15.568	1.5945
15.2925	1.4458
15.0265	1.5593
14.7697	1.6455
14.5214	1.6299
14.2814	1.7466
14.0492	1.8701
13.8244	1.9185
13.6067	1.958
13.3957	1.8223
13.1912	1.6897
12.9929	1.9751
12.8004	2.2119
12.6135	2.1926
12.432	2.186
12.2557	2.4534
12.0843	2.6365
11.9176	3.1023
11.7555	3.1321
11.5977	2.7883
11.444	2.4741
11.2944	2.3193
11.1487	2.2908
11.0067	2.2932
10.8682	2.2227
10.7332	2.2078
10.6015	2.3997
10.473	2.7175
10.3476	2.8909
10.2251	3.1252
10.1056	3.3288
9.98873	3.5259
9.87458	3.7734
9.763	4.1855
9.65392	5.2573
9.54724	5.8899
9.44291	4.5481
9.34082	4.2595
9.24091	5.0632
9.14312	5.9072
9.04739	6.3432
8.95363	6.487
8.8618	6.5593
8.77183	6.6098
8.68368	6.3313
8.59727	5.2622
8.51257	4.0796
8.42951	2.7595
8.34807	1.6528
8.26819	1.2078
8.18981	1.3176
8.11292	1.6436
8.03745	2.0566
7.96337	2.4739
7.89064	2.8574
7.81924	3.2073
7.74911	3.541
7.68023	3.8721
7.61256	4.1819
7.54608	4.4761
7.48074	4.6848
7.41653	4.8674
7.35341	5.0215
7.29136	5.1426
7.23034	5.3586
7.17033	5.5932
7.11132	5.8325
7.05327	6.0117
6.99616	6.2126
6.93996	6.3972
6.88467	6.5796
6.83024	6.7573
6.77667	6.9722
6.72393	7.1789
6.67201	7.3728
6.62089	7.55
6.57054	7.687
6.52095	7.8391
6.4721	7.9262
6.42398	7.9607
6.37657	8.0083
6.32986	8.0078
6.28382	7.9873
6.23845	7.9004
6.19373	7.7463
6.14965	7.5508
6.10619	7.3088
6.06334	7.1225
6.02109	6.9858
5.97942	6.875
5.93832	6.7712
5.89778	6.7693
5.8578	6.8244
5.81835	6.8533
5.77943	6.8398
5.74103	6.7641
5.70314	6.688
5.66574	6.6247
5.62883	6.5622
5.5924	6.5249
5.55644	6.5366
5.52093	6.5661
5.48588	6.6355
5.45127	6.7788
5.41709	6.9621
5.38334	7.1511
5.35	7.3371
5.31708	7.6299
5.28456	7.997
5.25243	8.4167
5.2207	8.8381
5.18934	9.2534
5.15836	9.6828
5.12775	10.0388
5.09749	10.2851
5.0676	10.3884
5.03805	10.4455
5.00884	10.4553
4.97998	10.4563
4.95144	10.4717
4.92322	10.5017
4.89533	10.5974
4.86775	10.7187
4.84048	10.8039
4.81351	10.8774
4.78684	10.9655
4.76047	11.0971
4.73439	11.2551
4.70859	11.4099
4.68306	11.551
4.65782	11.7468
4.63284	11.9516
4.60814	12.1772
4.58369	12.3703
4.5595	12.5251
4.53557	12.6706
4.51188	12.8108
4.48845	12.9504
4.46525	13.1115
4.44229	13.2729
4.41957	13.4192
4.39708	13.5366
4.37481	13.6242
4.35277	13.6674
4.33096	13.7011
4.30935	13.7263
4.28797	13.7358
4.26679	13.7605
4.24583	13.7827
4.22506	13.7985
4.2045	13.8181
4.18414	13.809
4.16398	13.8203
4.14401	13.823
4.12423	13.8432
4.10464	13.8525
4.08523	13.8752
4.066	13.8816
4.04696	13.896
4.02809	13.9128
4.0094	13.9257
3.99088	13.9238
3.97253	13.9282
3.95435	13.9382
3.93634	13.9546
3.91848	13.967
3.90079	13.9785
3.88326	13.9863
3.86589	13.9738
3.84867	13.9797
3.8316	13.9802
3.81468	13.9629
3.79791	13.9487
3.78129	13.9006
3.76482	13.8413
3.74848	13.76
3.73229	13.7097
3.71624	13.6726
3.70032	13.664
3.68454	13.6628
3.6689	13.6533
3.65338	13.6897
3.638	13.7138
3.62275	13.7292
3.60762	13.7502
3.59262	13.7426
3.57775	13.7336
3.56299	13.6948
3.54836	13.6511
3.53385	13.6169
3.51945	13.5224
3.50517	13.395
3.49101	13.3735
3.47696	13.334
3.46303	13.2905
3.4492	13.216
3.43549	13.1052
3.42188	12.9609
3.40838	12.8818
3.39499	12.8947
3.38171	12.8388
3.36852	12.8012
3.35544	12.7849
3.34246	12.7444
3.32958	12.7009
3.3168	12.6445
3.30411	12.5984
3.29153	12.5258
3.27903	12.4392
3.26664	12.3532
3.25433	12.261
3.24212	12.1919
3.23	12.0825
3.21797	11.9946
3.20603	11.9023
3.19418	11.8215
3.18241	11.7221
3.17074	11.6528
3.15914	11.5993
3.14763	11.5017
3.13621	11.4104
3.12487	11.3205
3.11361	11.2488
3.10243	11.1836
3.09133	11.1086
3.0803	11.0627
3.06936	11.0036
3.0585	10.937
3.04771	10.8899
3.037	10.831
3.02636	10.7859
3.0158	10.7275
3.00531	10.678
2.99489	10.6208
2.98454	10.5263
2.97427	10.4265
2.96407	10.3205
2.95393	10.1946
2.94387	10.0639
2.93387	9.927
2.92394	9.7954
2.91408	9.7058
2.90429	9.6357
2.89456	9.6206
2.88489	9.6137
2.87529	9.5779
2.86576	9.5825
2.85628	9.5254
2.84687	9.2983
2.83752	8.8227
2.82823	7.9143
2.81901	6.5112
2.80984	4.8755
2.80073	3.5737
2.79168	2.595
2.78269	2.0098
2.77376	1.7419
2.76488	1.5359
2.75606	1.4883
2.7473	1.677
2.73859	2.0969
2.72994	3.1338
2.72134	5.8244
2.7128	9.2024
2.70431	10.8442
2.69587	11.4675
2.68748	11.8523
2.67915	12.165
2.67087	12.4765
2.66264	12.7942
2.65446	12.9616
2.64633	13.049
2.63825	13.0312
2.63021	13.0163
2.62223	13.0434
2.6143	13.0822
2.60641	13.1003
2.59857	13.2199
2.59078	13.3303
2.58304	13.3916
2.57534	13.4648
2.56768	13.539
2.56008	13.6247
2.55251	13.6645
2.54499	13.7014
2.53752	13.6445
2.53009	13.5861
2.5227	13.4572
2.51536	13.3657
2.50806	13.2741
2.5008	13.1621
2.49358	13.0822
2.4864	13.0512
2.47927	12.9604
2.47218	12.8398
2.46512	12.7099
2.45811	12.6274
2.45114	12.5385
2.4442	12.4909
2.43731	12.5468
2.43045	12.6714
2.42363	12.8215
2.41685	12.9653
2.41011	13.0673
2.40341	13.0796
2.39674	13.0688
2.39011	12.9653
2.38352	12.9345
2.37696	12.9087
2.37044	12.9084
2.36395	12.8564
2.35751	12.8139
2.35109	12.8049
2.34471	12.905
2.33836	13.1425
2.33205	13.4206
2.32578	13.7431
2.31953	14.0127
2.31332	14.2529
2.30714	14.4668
2.301	14.6377
2.29489	14.727
2.28881	14.7656
2.28276	14.7719
2.27675	14.7319
2.27076	14.698
2.26481	14.6352
2.25889	14.4209
2.253	14.1401
2.24714	13.8491
2.24131	13.6933
2.23551	13.6252
2.22974	13.4477
2.224	13.0771
2.21829	12.6396
2.21261	12.3369
2.20696	12.292
2.20134	12.4948
2.19574	12.9399
2.19018	13.5927
2.18464	14.0998
2.17913	14.5224
2.17365	14.8508
2.16819	15.019
2.16277	15.1818
2.15737	15.2348
2.15199	15.2802
2.14665	15.34
2.14133	15.4191
2.13603	15.4284
2.13077	15.3955
2.12552	15.4187
2.12031	15.4777
2.11512	15.4719
2.10995	15.5044
2.10481	15.6001
2.0997	15.6572
2.09461	15.7214
2.08954	15.7685
2.0845	15.8
2.07948	15.7863
