Name: Monticellite CaMgSiO4
Type: Mineral
Class: Silicates
Subclass: Nesosilicates (Isolated tetrahedra); (OlivineGroup)
Particle Size: Coarse  (75-250 micrometers)
Sample No.: monticell.1
Owner: JHU
Wavelength Range: IR
Origin: Magnet Cove, Arkansas via the Smithsonian (NMNH 79051-1)
Description: The sample was composed of one large fragment and two
Measurement: Bidirectional reflectance
X Units: Wavelength (micrometers)
Y Units: Reflectance (percent)
wavelength	value
25.0442	3.0732
24.3388	2.302
23.6719	2.7544
23.0407	3.0193
22.4422	2.3965
21.8741	1.5977
21.334	1.7983
20.8199	2.3662
20.33	2.9043
19.8627	3.0102
19.4163	3.3503
18.9896	3.3857
18.5812	3.1006
18.19	2.5842
17.815	1.7095
17.4551	1.1128
17.1094	1.27
16.7772	1.7195
16.4576	2.1431
16.15	2.1863
15.8537	1.4998
15.568	0.9412
15.2925	0.8738
15.0265	1.0024
14.7697	1.0483
14.5214	1.1538
14.2814	1.2051
14.0492	1.2952
13.8244	1.314
13.6067	1.3843
13.3957	1.3779
13.1912	1.4331
12.9929	1.4438
12.8004	1.428
12.6135	1.4524
12.432	1.4895
12.2557	1.6372
12.0843	1.9492
11.9176	1.6536
11.7555	2.061
11.5977	2.5893
11.444	3.9878
11.2944	4.6296
11.1487	4.8689
11.0067	5.0867
10.8682	5.2749
10.7332	5.4365
10.6015	5.0735
10.473	3.1807
10.3476	4.3672
10.2251	3.4756
10.1056	3.2476
9.98873	2.9116
9.87458	2.562
9.763	2.196
9.65392	1.939
9.54724	1.6306
9.44291	1.22
9.34082	0.9543
9.24091	0.802
9.14312	0.7561
9.04739	0.7493
8.95363	0.7874
8.8618	0.7998
8.77183	0.8306
8.68368	0.8357
8.59727	0.8562
8.51257	0.9197
8.42951	0.979
8.34807	1.0774
8.26819	1.1868
8.18981	1.3105
8.11292	1.4575
8.03745	1.7134
7.96337	2.2432
7.89064	2.6023
7.81924	2.7471
7.74911	2.8098
7.68023	3.0083
7.61256	3.2436
7.54608	3.5483
7.48074	3.7693
7.41653	4.0835
7.35341	4.509
7.29136	4.4829
7.23034	4.8931
7.17033	5.2258
7.11132	5.3071
7.05327	5.3183
6.99616	5.5698
6.93996	5.4072
6.88467	5.3926
6.83024	5.4548
6.77667	5.6079
6.72393	5.9226
6.67201	6.4087
6.62089	6.8952
6.57054	7.1213
6.52095	7.0705
6.4721	6.8813
6.42398	6.5967
6.37657	6.4565
6.32986	6.1025
6.28382	5.7844
6.23845	5.841
6.19373	5.4045
6.14965	4.271
6.10619	3.7595
6.06334	2.6011
6.02109	2.5251
5.97942	3.2746
5.93832	3.1516
5.89778	3.5886
5.8578	3.9709
5.81835	3.9092
5.77943	3.4204
5.74103	3.1255
5.70314	2.6199
5.66574	2.4226
5.62883	3.0481
5.5924	3.4619
5.55644	3.7234
5.52093	3.7666
5.48588	4.2085
5.45127	4.4841
5.41709	4.6694
5.38334	4.8701
5.35	5.1567
5.31708	5.0505
5.28456	5.1816
5.25243	5.7622
5.2207	5.9653
5.18934	6.5835
5.15836	6.865
5.12775	6.8557
5.09749	6.6714
5.0676	6.3264
5.03805	5.8613
5.00884	6.0889
4.97998	7.7229
4.95144	9.4673
4.92322	10.0593
4.89533	10.4126
4.86775	10.6499
4.84048	10.7973
4.81351	10.8928
4.78684	11.0085
4.76047	11.1194
4.73439	11.1806
4.70859	11.2187
4.68306	11.258
4.65782	11.2871
4.63284	11.3322
4.60814	11.4016
4.58369	11.4572
4.5595	11.5151
4.53557	11.5808
4.51188	11.6321
4.48845	11.6911
4.46525	11.7226
4.44229	11.7566
4.41957	11.7929
4.39708	11.8359
4.37481	11.8681
4.35277	11.895
4.33096	11.9091
4.30935	11.9587
4.28797	12.0053
4.26679	12.0515
4.24583	12.0927
4.22506	12.1159
4.2045	12.1487
4.18414	12.1811
4.16398	12.2053
4.14401	12.2231
4.12423	12.2197
4.10464	12.2031
4.08523	12.1674
4.066	12.05
4.04696	11.9455
4.02809	12.0388
4.0094	12.122
3.99088	12.1013
3.97253	12.0949
3.95435	12.092
3.93634	12.0656
3.91848	12.0298
3.90079	11.9499
3.88326	11.8701
3.86589	11.7922
3.84867	11.7588
3.8316	11.7314
3.81468	11.7131
3.79791	11.6782
3.78129	11.6728
3.76482	11.6584
3.74848	11.6208
3.73229	11.6045
3.71624	11.5842
3.70032	11.5395
3.68454	11.5119
3.6689	11.4709
3.65338	11.4243
3.638	11.374
3.62275	11.2995
3.60762	11.2119
3.59262	11.1362
3.57775	11.0561
3.56299	10.9695
3.54836	10.8947
3.53385	10.7749
3.51945	10.603
3.50517	10.3
3.49101	10.3213
3.47696	10.3196
3.46303	10.2846
3.4492	10.1443
3.43549	9.9409
3.42188	9.5801
3.40838	9.5371
3.39499	9.6838
3.38171	9.6203
3.36852	9.6133
3.35544	9.6762
3.34246	9.6543
3.32958	9.6179
3.3168	9.4985
3.30411	9.404
3.29153	9.2932
3.27903	9.1706
3.26664	9.0373
3.25433	8.9153
3.24212	8.7895
3.23	8.6596
3.21797	8.53
3.20603	8.3738
3.19418	8.219
3.18241	8.083
3.17074	7.9509
3.15914	7.7949
3.14763	7.6369
3.13621	7.4621
3.12487	7.3264
3.11361	7.2104
3.10243	7.1221
3.09133	7.0466
3.0803	6.9656
3.06936	6.8865
3.0585	6.8022
3.04771	6.7651
3.037	6.7363
3.02636	6.6452
3.0158	6.56
3.00531	6.4392
2.99489	6.3306
2.98454	6.227
2.97427	6.1365
2.96407	6.0749
2.95393	6.0752
2.94387	6.0947
2.93387	6.1846
2.92394	6.3166
2.91408	6.5034
2.90429	6.5991
2.89456	6.5776
2.88489	6.5312
2.87529	6.4617
2.86576	6.3708
2.85628	6.4126
2.84687	6.4995
2.83752	6.832
2.82823	7.321
2.81901	7.6228
2.80984	7.7148
2.80073	7.7407
2.79168	8.1184
2.78269	8.2212
2.77376	8.2773
2.76488	8.2771
2.75606	8.271
2.7473	8.26
2.73859	8.3547
2.72994	8.4729
2.72134	8.4673
2.7128	8.3777
2.70431	8.884
2.69587	9.9985
2.68748	10.9885
2.67915	11.3811
2.67087	11.4944
2.66264	13.1714
2.65446	13.4489
2.64633	13.612
2.63825	13.7241
2.63021	13.749
2.62223	13.8076
2.6143	13.8247
2.60641	13.7724
2.59857	13.8349
2.59078	13.8403
2.58304	13.8071
2.57534	13.8447
2.56768	13.8574
2.56008	13.83
2.55251	13.853
2.54499	13.883
2.53752	13.9072
2.53009	13.9453
2.5227	13.9367
2.51536	13.9179
2.50806	13.9284
2.5008	13.935
2.49358	13.9716
2.4864	14.0302
2.47927	14.0009
2.47218	14.0344
2.46512	14.0918
2.45811	14.0976
2.45114	14.1406
2.4442	14.1264
2.43731	14.1045
2.43045	14.0918
2.42363	14.1279
2.41685	14.134
2.41011	14.167
2.40341	14.1411
2.39674	14.1372
2.39011	14.1406
2.38352	14.1762
2.37696	14.2041
2.37044	14.2182
2.36395	14.2285
2.35751	14.1875
2.35109	14.1362
2.34471	14.0151
2.33836	13.914
2.33205	13.8835
2.32578	13.8891
2.31953	13.8564
2.31332	13.9152
2.30714	13.9416
2.301	13.9939
2.29489	14.0556
2.28881	14.0014
2.28276	14.0344
2.27675	14.0651
2.27076	14.0683
2.26481	14.0957
2.25889	14.1552
2.253	14.1469
2.24714	14.092
2.24131	14.1296
2.23551	14.1828
2.22974	14.1643
2.224	14.1723
2.21829	14.1689
2.21261	14.187
2.20696	14.1479
2.20134	14.1367
2.19574	14.1762
2.19018	14.1972
2.18464	14.1945
2.17913	14.2627
2.17365	14.3274
2.16819	14.3794
2.16277	14.3891
2.15737	14.3877
2.15199	14.3852
2.14665	14.3371
2.14133	14.3947
2.13603	14.3762
2.13077	14.4143
2.12552	14.4716
2.12031	14.5205
2.11512	14.5236
2.10995	14.4746
2.10481	14.5005
2.0997	14.5044
2.09461	14.5214
2.08954	14.5693
2.0845	14.5705
2.07948	14.5324
