Name: Pyrophyllite Al2Si4010(OH)2
Type: Mineral
Class: Silicates
Subclass: Phyllosilicates (Sheet Silicates); Talk/Pyrophyllite Group
Particle Size: Fine  (0-74  Micrometers)
Sample No.: pyroph.1
Owner: JHU
Wavelength Range: IR
Origin: Stanley, North Carolina, USA via Bruce Hemingway, USGS
Description: The sample consisted of clusters of white radiating
Measurement: Bidirectional reflectance
X Units: Wavelength (micrometers)
Y Units: Reflectance (percent)
wavelength	value
25.0442	6.4951
24.3388	7.0488
23.6719	5.4331
23.0407	6.3252
22.4422	6.8264
21.8741	7.3838
21.334	8.0512
20.8199	8.9282
20.33	9.6992
19.8627	7.7182
19.4163	6.5972
18.9896	8.8889
18.5812	10.343
18.19	13.3957
17.815	14.6181
17.4551	13.1399
17.1094	11.6013
16.7772	15.1303
16.4576	15.0981
16.15	11.386
15.8537	10.0158
15.568	7.4756
15.2925	5.3254
15.0265	4.2966
14.7697	4.3801
14.5214	4.9216
14.2814	5.2732
14.0492	5.7497
13.8244	6.0759
13.6067	5.3078
13.3957	6.123
13.1912	6.999
12.9929	7.5422
12.8004	7.7165
12.6135	7.5757
12.432	6.1753
12.2557	4.1594
12.0843	5.2981
11.9176	3.633
11.7555	4.3711
11.5977	4.802
11.444	6.1118
11.2944	6.7097
11.1487	6.7366
11.0067	6.0796
10.8682	6.0088
10.7332	5.4829
10.6015	5.0259
10.473	6.5344
10.3476	4.1255
10.2251	4.343
10.1056	4.9394
9.98873	4.8918
9.87458	4.8845
9.763	4.8452
9.65392	5.1003
9.54724	6.4521
9.44291	8.1018
9.34082	10.0102
9.24091	12.5847
9.14312	14.5874
9.04739	14.382
8.95363	8.8994
8.8618	15.2758
8.77183	18.0297
8.68368	19.3623
8.59727	19.7529
8.51257	19.4028
8.42951	18.4106
8.34807	17.6699
8.26819	16.9182
8.18981	15.1882
8.11292	13.2531
8.03745	11.3413
7.96337	9.1391
7.89064	7.0061
7.81924	5.3042
7.74911	4.0994
7.68023	3.4697
7.61256	3.3491
7.54608	3.6958
7.48074	4.3166
7.41653	4.8718
7.35341	5.4194
7.29136	5.8965
7.23034	6.4431
7.17033	6.9092
7.11132	7.3396
7.05327	7.8772
6.99616	8.2937
6.93996	8.4404
6.88467	8.7378
6.83024	8.9814
6.77667	9.4865
6.72393	10.008
6.67201	10.393
6.62089	10.5019
6.57054	10.529
6.52095	10.675
6.4721	10.7842
6.42398	11.0046
6.37657	11.0903
6.32986	11.3674
6.28382	11.7502
6.23845	11.9507
6.19373	11.9892
6.14965	12.008
6.10619	12.0954
6.06334	12.2744
6.02109	12.7544
5.97942	12.6677
5.93832	12.2641
5.89778	12.0373
5.8578	11.7304
5.81835	10.7871
5.77943	10.26
5.74103	10.1982
5.70314	10.4048
5.66574	10.6865
5.62883	10.8513
5.5924	10.8093
5.55644	10.7563
5.52093	10.8503
5.48588	10.7456
5.45127	10.5759
5.41709	10.4216
5.38334	9.8418
5.35	8.666
5.31708	7.802
5.28456	8.0054
5.25243	9.5359
5.2207	10.4204
5.18934	10.9355
5.15836	11.6823
5.12775	11.9865
5.09749	11.8496
5.0676	11.7851
5.03805	11.8435
5.00884	12.1897
4.97998	12.7627
4.95144	13.9536
4.92322	14.7924
4.89533	15.5102
4.86775	16.1945
4.84048	16.581
4.81351	16.6794
4.78684	16.7841
4.76047	16.9563
4.73439	17.1101
4.70859	17.2309
4.68306	17.4104
4.65782	17.6623
4.63284	17.8581
4.60814	18.0053
4.58369	17.9782
4.5595	17.9819
4.53557	18.0593
4.51188	18.1418
4.48845	18.2885
4.46525	18.4016
4.44229	18.6455
4.41957	18.7758
4.39708	18.7993
4.37481	18.8781
4.35277	18.9396
4.33096	18.9865
4.30935	19.0136
4.28797	19.0383
4.26679	19.1518
4.24583	19.2373
4.22506	19.3088
4.2045	19.3686
4.18414	19.3876
4.16398	19.4006
4.14401	19.3999
4.12423	19.3989
4.10464	19.405
4.08523	19.4384
4.066	19.4511
4.04696	19.4614
4.02809	19.4809
4.0094	19.4965
3.99088	19.5012
3.97253	19.5161
3.95435	19.5297
3.93634	19.5624
3.91848	19.5837
3.90079	19.6135
3.88326	19.6062
3.86589	19.6086
3.84867	19.6145
3.8316	19.6201
3.81468	19.6157
3.79791	19.6228
3.78129	19.6306
3.76482	19.6411
3.74848	19.6323
3.73229	19.6303
3.71624	19.6059
3.70032	19.4926
3.68454	19.1733
3.6689	19.177
3.65338	19.3564
3.638	19.5483
3.62275	19.5979
3.60762	19.6201
3.59262	19.5939
3.57775	19.5805
3.56299	19.5656
3.54836	19.5561
3.53385	19.541
3.51945	19.4467
3.50517	19.177
3.49101	19.289
3.47696	19.3173
3.46303	19.3383
3.4492	19.2429
3.43549	19.0886
3.42188	18.715
3.40838	18.8313
3.39499	19.0593
3.38171	19.0227
3.36852	19.07
3.35544	19.1945
3.34246	19.2189
3.32958	19.2299
3.3168	19.2436
3.30411	19.2424
3.29153	19.1882
3.27903	19.2102
3.26664	19.2065
3.25433	19.2031
3.24212	19.1423
3.23	19.1225
3.21797	19.1323
3.20603	19.111
3.19418	19.0781
3.18241	19
3.17074	18.9072
3.15914	18.8547
3.14763	18.8859
3.13621	18.8417
3.12487	18.8164
3.11361	18.7307
3.10243	18.6086
3.09133	18.5783
3.0803	18.5185
3.06936	18.4057
3.0585	18.3339
3.04771	18.3063
3.037	18.2197
3.02636	18.1157
3.0158	17.894
3.00531	17.6215
2.99489	17.5839
2.98454	17.4013
2.97427	17.1684
2.96407	17.4096
2.95393	17.6547
2.94387	17.802
2.93387	17.6525
2.92394	17.1743
2.91408	17.3422
2.90429	17.319
2.89456	17.0586
2.88489	16.9521
2.87529	16.3261
2.86576	16.0412
2.85628	16.2783
2.84687	16.3774
2.83752	16.8173
2.82823	17.1132
2.81901	17.0366
2.80984	16.6176
2.80073	16.5615
2.79168	16.3476
2.78269	15.2155
2.77376	15.7568
2.76488	14.4243
2.75606	13.7739
2.7473	11.0307
2.73859	9.4028
2.72994	6.5166
2.72134	4.0747
2.7128	5.1391
2.70431	9.1025
2.69587	12.3911
2.68748	14.5835
2.67915	15.6069
2.67087	16.1247
2.66264	16.6777
2.65446	16.9877
2.64633	17.0969
2.63825	17.0419
2.63021	17.01
2.62223	16.9748
2.6143	16.4804
2.60641	16.0334
2.59857	16.0803
2.59078	16.6889
2.58304	17.08
2.57534	17.2138
2.56768	17.1435
2.56008	17.2763
2.55251	17.146
2.54499	17.1416
2.53752	17.3964
2.53009	17.3134
2.5227	17.1135
2.51536	16.8559
2.50806	16.6984
2.5008	16.7016
2.49358	16.7475
2.4864	16.8273
2.47927	16.9465
2.47218	17.1809
2.46512	17.177
2.45811	17.1672
2.45114	17.1577
2.4442	17.0871
2.43731	17.0517
2.43045	16.9738
2.42363	17.0283
2.41685	17.176
2.41011	17.1313
2.40341	17.0546
2.39674	17.0029
2.39011	16.9062
2.38352	17.1337
2.37696	17.4533
2.37044	17.4348
2.36395	17.343
2.35751	17.2451
2.35109	17.2216
2.34471	17.1731
2.33836	17.3254
2.33205	17.2023
2.32578	16.8339
2.31953	16.5969
2.31332	16.8242
2.30714	17.0669
2.301	17.187
2.29489	17.3046
2.28881	17.3842
2.28276	17.4555
2.27675	17.6743
2.27076	17.7417
2.26481	17.8735
2.25889	17.9023
2.253	17.9814
2.24714	18.0083
2.24131	18.0419
2.23551	18.1357
2.22974	18.1254
2.224	18.0063
2.21829	17.9692
2.21261	18.0351
2.20696	18.0415
2.20134	17.9975
2.19574	18.0683
2.19018	18.0234
2.18464	17.747
2.17913	17.1977
2.17365	15.9965
2.16819	14.1723
2.16277	15.0488
2.15737	16.8574
2.15199	17.5415
2.14665	18.0419
2.14133	18.2211
2.13603	18.2685
2.13077	18.415
2.12552	18.5
2.12031	18.664
2.11512	18.6899
2.10995	18.7734
2.10481	18.831
2.0997	18.9238
2.09461	18.9472
2.08954	18.9062
2.0845	18.8168
2.07948	18.8652
