Name: Biotite K(Mg,Fe+2)3(Al,Fe+3)Si3O10(OH,F)2
Type: Mineral
Class: Silicates
Subclass: Phyllosilicates (Mica Group)
Particle Size: Fine  (0 - 74 Micrometers)
Sample No.: biotite.2
Owner: JHU
Wavelength Range: IR
Origin: Hunt and Salisbury Collection #28B (purchased from Ward's
Description: No solid sample was available.  The particulate samples
Measurement: Bidirectional reflectance
X Units: Wavelength (micrometers)
Y Units: Reflectance (percent)
wavelength	value
25.0442	1.2314
24.3388	1.2412
23.6719	1.5215
23.0407	1.4145
22.4422	1.6191
21.8741	1.9853
21.334	2.2441
20.8199	2.1919
20.33	2.3198
19.8627	2.5254
19.4163	2.689
18.9896	2.7497
18.5812	2.5842
18.19	2.2383
17.815	1.6931
17.4551	1.1714
17.1094	0.8525
16.7772	0.7925
16.4576	0.7451
16.15	0.7686
15.8537	0.7522
15.568	0.7749
15.2925	0.7825
15.0265	0.8499
14.7697	0.8103
14.5214	0.8162
14.2814	1.1287
14.0492	1.1138
13.8244	0.9109
13.6067	1.0222
13.3957	1.2302
13.1912	1.3374
12.9929	1.3669
12.8004	1.5757
12.6135	1.8535
12.432	2.0752
12.2557	2.5737
12.0843	2.8481
11.9176	2.7397
11.7555	2.4311
11.5977	2.1511
11.444	1.8613
11.2944	1.6484
11.1487	1.436
11.0067	1.292
10.8682	1.2329
10.7332	1.1912
10.6015	1.1533
10.473	1.1558
10.3476	1.209
10.2251	1.1963
10.1056	1.2537
9.98873	1.5723
9.87458	2.0723
9.763	2.3093
9.65392	2.2239
9.54724	2.0857
9.44291	1.9456
9.34082	1.8787
9.24091	1.9988
9.14312	2.1575
9.04739	2.2634
8.95363	2.3093
8.8618	1.8718
8.77183	1.3804
8.68368	1.0598
8.59727	1.0342
8.51257	1.2954
8.42951	1.7529
8.34807	2.2808
8.26819	2.8059
8.18981	3.2766
8.11292	3.647
8.03745	3.9463
7.96337	4.1924
7.89064	4.406
7.81924	4.5842
7.74911	4.7197
7.68023	4.8479
7.61256	4.9604
7.54608	5.1113
7.48074	5.2319
7.41653	5.3325
7.35341	5.4077
7.29136	5.4172
7.23034	5.3945
7.17033	5.24
7.11132	5.0705
7.05327	4.9551
6.99616	4.8994
6.93996	4.8889
6.88467	4.9309
6.83024	5.0615
6.77667	5.2712
6.72393	5.5244
6.67201	5.7976
6.62089	6.1125
6.57054	6.4209
6.52095	6.6958
6.4721	6.8459
6.42398	6.8513
6.37657	6.7749
6.32986	6.582
6.28382	6.3872
6.23845	6.2041
6.19373	6.0515
6.14965	5.9585
6.10619	5.8977
6.06334	5.9414
6.02109	6.084
5.97942	6.2395
5.93832	6.2627
5.89778	6.2947
5.8578	6.3738
5.81835	6.4101
5.77943	6.4927
5.74103	6.5451
5.70314	6.583
5.66574	6.6684
5.62883	6.7888
5.5924	6.832
5.55644	6.853
5.52093	7.0786
5.48588	7.198
5.45127	7.3791
5.41709	7.6128
5.38334	7.9507
5.35	8.3259
5.31708	8.7561
5.28456	9.0373
5.25243	9.1738
5.2207	9.2209
5.18934	9.2502
5.15836	9.2866
5.12775	9.3215
5.09749	9.3227
5.0676	9.3012
5.03805	9.2759
5.00884	9.2995
4.97998	9.3806
4.95144	9.4406
4.92322	9.4262
4.89533	9.4055
4.86775	9.4653
4.84048	9.5666
4.81351	9.7058
4.78684	9.8191
4.76047	9.9553
4.73439	10.1364
4.70859	10.2751
4.68306	10.403
4.65782	10.5322
4.63284	10.6948
4.60814	10.8691
4.58369	11.0359
4.5595	11.1736
4.53557	11.2761
4.51188	11.3484
4.48845	11.4074
4.46525	11.4494
4.44229	11.4807
4.41957	11.5171
4.39708	11.53
4.37481	11.5417
4.35277	11.5659
4.33096	11.5835
4.30935	11.6047
4.28797	11.612
4.26679	11.6325
4.24583	11.6574
4.22506	11.6858
4.2045	11.696
4.18414	11.7082
4.16398	11.7177
4.14401	11.7339
4.12423	11.7563
4.10464	11.7632
4.08523	11.7663
4.066	11.7654
4.04696	11.7458
4.02809	11.6474
4.0094	11.5315
3.99088	11.3672
3.97253	11.2551
3.95435	11.3923
3.93634	11.5888
3.91848	11.6611
3.90079	11.7002
3.88326	11.7246
3.86589	11.7346
3.84867	11.7661
3.8316	11.7927
3.81468	11.8337
3.79791	11.8791
3.78129	11.9072
3.76482	11.9111
3.74848	11.9279
3.73229	11.9057
3.71624	11.9052
3.70032	11.9004
3.68454	11.8789
3.6689	11.8601
3.65338	11.8552
3.638	11.8393
3.62275	11.821
3.60762	11.8091
3.59262	11.7732
3.57775	11.7453
3.56299	11.7163
3.54836	11.6721
3.53385	11.6045
3.51945	11.4436
3.50517	11.2453
3.49101	11.2209
3.47696	11.1936
3.46303	11.2607
3.4492	11.23
3.43549	11.1335
3.42188	10.9555
3.40838	10.9612
3.39499	11.0564
3.38171	11.0412
3.36852	11.0674
3.35544	11.0661
3.34246	11.112
3.32958	11.1667
3.3168	11.1418
3.30411	11.0969
3.29153	11.0534
3.27903	10.9948
3.26664	10.9409
3.25433	10.8733
3.24212	10.8156
3.23	10.7739
3.21797	10.7468
3.20603	10.728
3.19418	10.6994
3.18241	10.6667
3.17074	10.6379
3.15914	10.5825
3.14763	10.5139
3.13621	10.4543
3.12487	10.403
3.11361	10.3684
3.10243	10.3147
3.09133	10.2759
3.0803	10.2619
3.06936	10.2119
3.0585	10.1714
3.04771	10.1325
3.037	10.0844
3.02636	10.0508
3.0158	9.9953
3.00531	9.948
2.99489	9.8957
2.98454	9.8789
2.97427	9.8257
2.96407	9.7844
2.95393	9.749
2.94387	9.7141
2.93387	9.6858
2.92394	9.6599
2.91408	9.6394
2.90429	9.6177
2.89456	9.5823
2.88489	9.4897
2.87529	9.3601
2.86576	9.1345
2.85628	8.8479
2.84687	8.4538
2.83752	7.988
2.82823	7.5666
2.81901	7.5144
2.80984	7.9116
2.80073	8.4385
2.79168	8.8003
2.78269	9.0678
2.77376	9.2539
2.76488	9.3056
2.75606	8.8713
2.7473	7.8364
2.73859	6.7097
2.72994	5.8552
2.72134	5.5066
2.7128	5.0327
2.70431	5.6731
2.69587	6.9409
2.68748	9.4394
2.67915	11.6843
2.67087	11.9748
2.66264	12.0649
2.65446	12.0481
2.64633	12.0554
2.63825	12.0412
2.63021	12.0276
2.62223	12.0725
2.6143	12.103
2.60641	12.1413
2.59857	12.195
2.59078	12.2224
2.58304	12.2046
2.57534	12.2033
2.56768	12.186
2.56008	12.1616
2.55251	12.1601
2.54499	12.1645
2.53752	12.1572
2.53009	12.0888
2.5227	12.0659
2.51536	12.0764
2.50806	12.0737
2.5008	12.0537
2.49358	12.0559
2.4864	12.0114
2.47927	12.0117
2.47218	11.9917
2.46512	11.9841
2.45811	11.957
2.45114	11.9236
2.4442	11.8974
2.43731	11.893
2.43045	11.8618
2.42363	11.8081
2.41685	11.7729
2.41011	11.6723
2.40341	11.6313
2.39674	11.57
2.39011	11.5591
2.38352	11.5991
2.37696	11.6391
2.37044	11.6572
2.36395	11.653
2.35751	11.6391
2.35109	11.5749
2.34471	11.539
2.33836	11.4887
2.33205	11.4533
2.32578	11.5068
2.31953	11.602
2.31332	11.7346
2.30714	11.8042
2.301	11.8747
2.29489	11.8779
2.28881	11.935
2.28276	11.9013
2.27675	11.9248
2.27076	11.8906
2.26481	11.9199
2.25889	11.8935
2.253	11.8432
2.24714	11.854
2.24131	11.8293
2.23551	11.8154
2.22974	11.8203
2.224	11.7715
2.21829	11.8042
2.21261	11.7685
2.20696	11.7343
2.20134	11.6946
2.19574	11.7016
2.19018	11.6955
2.18464	11.6323
2.17913	11.5796
2.17365	11.5776
2.16819	11.5368
2.16277	11.5976
2.15737	11.5229
2.15199	11.476
2.14665	11.3955
2.14133	11.4321
2.13603	11.3877
2.13077	11.3481
2.12552	11.3286
2.12031	11.2954
2.11512	11.2641
2.10995	11.2175
2.10481	11.1797
2.0997	11.1953
2.09461	11.1904
2.08954	11.1552
2.0845	11.1665
2.07948	11.1006
