Name: Tourmaline (Schorl) NaFe3+2Al6(BO3)3Si6O18(OH)4
Type: Mineral
Class: Silicates
Subclass: Cycloilicates (Ring Silicates)
Particle Size: Fine  (0 - 74  Micrometers)
Sample No.: tourmal.2
Owner: JHU
Wavelength Range: IR
Origin: Minas Gerais, Brazil via the Hunt and Salisbury Collection
Description: The sample was a translucent, blue, single crystal.  It
Measurement: Bidirectional reflectance
X Units: Wavelength (micrometers)
Y Units: Reflectance (percent)
wavelength	value
25.0442	1.095
24.3388	1.394
23.6719	1.2915
23.0407	1.2727
22.4422	1.1746
21.8741	1.0994
21.334	1.2173
20.8199	1.4504
20.33	1.6221
19.8627	1.7563
19.4163	1.7754
18.9896	1.6616
18.5812	1.4084
18.19	1.2825
17.815	1.3047
17.4551	1.2136
17.1094	1.3218
16.7772	1.3784
16.4576	1.3223
16.15	1.5774
15.8537	1.1367
15.568	0.6355
15.2925	0.5703
15.0265	0.5759
14.7697	0.5803
14.5214	0.4963
14.2814	0.5715
14.0492	0.5652
13.8244	0.4438
13.6067	0.4004
13.3957	0.5015
13.1912	0.561
12.9929	0.7004
12.8004	0.8332
12.6135	0.9255
12.432	0.7871
12.2557	0.7366
12.0843	0.8076
11.9176	0.9016
11.7555	0.8296
11.5977	0.9355
11.444	1.2163
11.2944	1.2209
11.1487	1.1265
11.0067	1.1318
10.8682	1.0476
10.7332	1.001
10.6015	1.0002
10.473	1.0334
10.3476	1.1355
10.2251	1.2593
10.1056	1.2966
9.98873	1.2317
9.87458	1.2097
9.763	1.2515
9.65392	1.2456
9.54724	1.1506
9.44291	1.0674
9.34082	1.0774
9.24091	0.8525
9.14312	0.8733
9.04739	0.9072
8.95363	0.8916
8.8618	0.8074
8.77183	0.3496
8.68368	0.1765
8.59727	0.3599
8.51257	0.5659
8.42951	0.7434
8.34807	0.8652
8.26819	0.9248
8.18981	0.9094
8.11292	0.8096
8.03745	0.7378
7.96337	0.759
7.89064	0.8074
7.81924	0.8081
7.74911	0.7353
7.68023	0.6987
7.61256	0.698
7.54608	0.7549
7.48074	0.8066
7.41653	0.8184
7.35341	0.8215
7.29136	0.7371
7.23034	0.6011
7.17033	0.4595
7.11132	0.3364
7.05327	0.2861
6.99616	0.3352
6.93996	0.5615
6.88467	0.9385
6.83024	1.2773
6.77667	1.5571
6.72393	1.8049
6.67201	2.0366
6.62089	2.2373
6.57054	2.4111
6.52095	2.581
6.4721	2.7327
6.42398	2.8476
6.37657	2.9724
6.32986	3.0825
6.28382	3.1711
6.23845	3.2268
6.19373	3.2627
6.14965	3.2705
6.10619	3.2478
6.06334	3.2165
6.02109	3.1916
5.97942	3.1841
5.93832	3.1199
5.89778	3.1145
5.8578	3.2644
5.81835	3.4231
5.77943	3.6001
5.74103	3.7751
5.70314	3.9424
5.66574	4.0276
5.62883	4.0373
5.5924	3.9766
5.55644	3.8887
5.52093	3.8579
5.48588	3.9248
5.45127	4.0793
5.41709	4.2112
5.38334	4.2666
5.35	4.3415
5.31708	4.4626
5.28456	4.5317
5.25243	4.5334
5.2207	4.54
5.18934	4.6103
5.15836	4.624
5.12775	4.5915
5.09749	4.5417
5.0676	4.498
5.03805	4.5088
5.00884	4.5737
4.97998	4.6719
4.95144	4.8081
4.92322	4.9524
4.89533	5.1111
4.86775	5.3088
4.84048	5.5227
4.81351	5.7346
4.78684	5.9248
4.76047	6.1179
4.73439	6.2988
4.70859	6.4692
4.68306	6.636
4.65782	6.7805
4.63284	6.8628
4.60814	6.854
4.58369	6.7649
4.5595	6.5566
4.53557	6.2881
4.51188	6.0259
4.48845	5.7876
4.46525	5.5981
4.44229	5.4416
4.41957	5.3208
4.39708	5.2507
4.37481	5.2182
4.35277	5.2331
4.33096	5.2812
4.30935	5.3489
4.28797	5.4436
4.26679	5.562
4.24583	5.7043
4.22506	5.8496
4.2045	6.0351
4.18414	6.2551
4.16398	6.4907
4.14401	6.7412
4.12423	6.9973
4.10464	7.2278
4.08523	7.4341
4.066	7.5903
4.04696	7.6692
4.02809	7.686
4.0094	7.6113
3.99088	7.457
3.97253	7.2466
3.95435	6.9853
3.93634	6.7551
3.91848	6.5508
3.90079	6.3464
3.88326	6.0964
3.86589	5.8327
3.84867	5.5842
3.8316	5.4253
3.81468	5.3877
3.79791	5.4458
3.78129	5.5456
3.76482	5.6719
3.74848	5.8176
3.73229	5.9595
3.71624	6.0893
3.70032	6.2073
3.68454	6.3327
3.6689	6.4824
3.65338	6.6758
3.638	6.8967
3.62275	7.1347
3.60762	7.3716
3.59262	7.5732
3.57775	7.7051
3.56299	7.79
3.54836	7.8801
3.53385	7.9414
3.51945	7.9897
3.50517	7.9826
3.49101	8.0356
3.47696	8.0439
3.46303	8.0215
3.4492	7.9787
3.43549	7.9394
3.42188	7.8857
3.40838	7.9189
3.39499	8.0158
3.38171	8.0273
3.36852	8.0449
3.35544	8.0542
3.34246	8.0439
3.32958	8.0054
3.3168	7.9587
3.30411	7.9277
3.29153	7.8852
3.27903	7.8345
3.26664	7.791
3.25433	7.727
3.24212	7.6689
3.23	7.6054
3.21797	7.5461
3.20603	7.4961
3.19418	7.4446
3.18241	7.3721
3.17074	7.3083
3.15914	7.2217
3.14763	7.1225
3.13621	6.9934
3.12487	6.8789
3.11361	6.7539
3.10243	6.6186
3.09133	6.4656
3.0803	6.2954
3.06936	6.1216
3.0585	5.9328
3.04771	5.74
3.037	5.5205
3.02636	5.251
3.0158	4.9204
3.00531	4.5742
2.99489	4.2549
2.98454	4.0234
2.97427	3.9004
2.96407	3.8523
2.95393	3.8611
2.94387	3.8589
2.93387	3.8245
2.92394	3.6953
2.91408	3.3818
2.90429	2.8203
2.89456	2.2256
2.88489	1.7524
2.87529	1.4717
2.86576	1.4019
2.85628	1.4509
2.84687	1.4873
2.83752	1.4673
2.82823	1.3569
2.81901	1.1592
2.80984	1.1509
2.80073	1.3332
2.79168	1.8179
2.78269	3.0298
2.77376	4.3657
2.76488	4.8584
2.75606	2.4128
2.7473	2.5869
2.73859	4.0027
2.72994	6.1252
2.72134	6.0078
2.7128	6.2453
2.70431	6.5874
2.69587	7.0041
2.68748	6.5019
2.67915	6.9097
2.67087	7.5864
2.66264	7.8388
2.65446	7.8464
2.64633	7.824
2.63825	7.8037
2.63021	7.716
2.62223	7.6819
2.6143	7.6335
2.60641	7.5906
2.59857	7.5871
2.59078	7.552
2.58304	7.5259
2.57534	7.5176
2.56768	7.4958
2.56008	7.4692
2.55251	7.4585
2.54499	7.4575
2.53752	7.4328
2.53009	7.4109
2.5227	7.3794
2.51536	7.3469
2.50806	7.3401
2.5008	7.312
2.49358	7.3171
2.4864	7.3462
2.47927	7.3677
2.47218	7.438
2.46512	7.4619
2.45811	7.521
2.45114	7.5796
2.4442	7.6262
2.43731	7.643
2.43045	7.6081
2.42363	7.5542
2.41685	7.4636
2.41011	7.3887
2.40341	7.2656
2.39674	7.103
2.39011	6.8408
2.38352	6.552
2.37696	6.3794
2.37044	6.52
2.36395	6.8428
2.35751	7.1484
2.35109	7.3867
2.34471	7.4773
2.33836	7.4888
2.33205	7.5388
2.32578	7.542
2.31953	7.4873
2.31332	7.3345
2.30714	7.144
2.301	7.228
2.29489	7.4189
2.28881	7.676
2.28276	7.7991
2.27675	7.7832
2.27076	7.7099
2.26481	7.5659
2.25889	7.2265
2.253	6.8408
2.24714	6.7256
2.24131	6.998
2.23551	7.3594
2.22974	7.4665
2.224	7.4751
2.21829	7.3598
2.21261	7.1435
2.20696	6.8701
2.20134	6.8152
2.19574	7.0488
2.19018	7.376
2.18464	7.5491
2.17913	7.6538
2.17365	7.7231
2.16819	7.7251
2.16277	7.7695
2.15737	7.7851
2.15199	7.7583
2.14665	7.7558
2.14133	7.7324
2.13603	7.7734
2.13077	7.7754
2.12552	7.7893
2.12031	7.7634
2.11512	7.7366
2.10995	7.7383
2.10481	7.75
2.0997	7.7178
2.09461	7.7619
2.08954	7.737
2.0845	7.7322
2.07948	7.6911
