Name: Goethite a-Fe+3O(OH)
Type: Mineral
Class: Hydroxides
Subclass: (Goethite Group)
Particle Size: Solid (unknown crystal face)
Sample No.: goethite.1
Owner: JHU
Wavelength Range: IR
Origin: Sample from Montreal, Wisconsin via the Smithsonian
Description: The sample consisted of a 4 cm x 2 cm x 2 cm cluster of
Measurement: Bidirectional reflectance
X Units: Wavelength (micrometers)
Y Units: Reflectance (percent)
wavelength	value
25.0442	32.9623
24.3388	30.2392
23.6719	30.8988
23.0407	31.2067
22.4422	30.142
21.8741	33.3988
21.334	34.1991
20.8199	33.0551
20.33	30.7497
19.8627	27.5405
19.4163	25.9662
18.9896	24.1032
18.5812	24.3942
18.19	23.8849
17.815	22.3525
17.4551	18.3532
17.1094	13.9863
16.7772	11.9306
16.4576	11.2863
16.15	11.3994
15.8537	11.5532
15.568	11.5263
15.2925	10.6384
15.0265	9.01
14.7697	6.633
14.5214	4.8276
14.2814	5.0474
14.0492	5.4983
13.8244	5.9751
13.6067	6.3989
13.3957	6.9228
13.1912	7.5246
12.9929	8.3349
12.8004	9.7038
12.6135	12.4695
12.432	16.0402
12.2557	17.9301
12.0843	18.0634
11.9176	15.1513
11.7555	10.425
11.5977	8.7839
11.444	8.9023
11.2944	9.6928
11.1487	10.6059
11.0067	11.2468
10.8682	11.4887
10.7332	10.0696
10.6015	6.0776
10.473	4.3559
10.3476	4.5329
10.2251	4.7432
10.1056	4.9465
9.98873	5.103
9.87458	5.22
9.763	5.342
9.65392	5.4433
9.54724	5.5869
9.44291	5.6872
9.34082	5.77
9.24091	5.8425
9.14312	5.8979
9.04739	5.9599
8.95363	6.0654
8.8618	6.0669
8.77183	6.0713
8.68368	6.1282
8.59727	6.1872
8.51257	6.2502
8.42951	6.3201
8.34807	6.3789
8.26819	6.4482
8.18981	6.501
8.11292	6.542
8.03745	6.5718
7.96337	6.625
7.89064	6.6975
7.81924	6.7705
7.74911	6.8118
7.68023	6.8481
7.61256	6.8994
7.54608	6.936
7.48074	6.9568
7.41653	7.0056
7.35341	7.0522
7.29136	7.0903
7.23034	7.1216
7.17033	7.1567
7.11132	7.1858
7.05327	7.1824
6.99616	7.1997
6.93996	7.2268
6.88467	7.2471
6.83024	7.2615
6.77667	7.2839
6.72393	7.3086
6.67201	7.341
6.62089	7.3613
6.57054	7.3657
6.52095	7.3699
6.4721	7.3479
6.42398	7.3149
6.37657	7.2969
6.32986	7.2805
6.28382	7.2556
6.23845	7.198
6.19373	7.1367
6.14965	7.0574
6.10619	6.9619
6.06334	6.8115
6.02109	6.6108
5.97942	6.5786
5.93832	6.7461
5.89778	6.873
5.8578	6.9692
5.81835	6.9619
5.77943	6.9555
5.74103	6.9277
5.70314	6.8689
5.66574	6.8093
5.62883	6.7305
5.5924	6.6684
5.55644	6.6218
5.52093	6.646
5.48588	6.7441
5.45127	6.8799
5.41709	7.0046
5.38334	7.0935
5.35	7.1516
5.31708	7.1819
5.28456	7.1709
5.25243	7.1518
5.2207	7.1382
5.18934	7.1369
5.15836	7.147
5.12775	7.1626
5.09749	7.166
5.0676	7.1614
5.03805	7.1821
5.00884	7.197
4.97998	7.2095
4.95144	7.228
4.92322	7.2619
4.89533	7.2954
4.86775	7.3222
4.84048	7.3559
4.81351	7.3869
4.78684	7.4057
4.76047	7.4255
4.73439	7.4438
4.70859	7.4763
4.68306	7.4931
4.65782	7.5176
4.63284	7.5403
4.60814	7.5569
4.58369	7.5674
4.5595	7.574
4.53557	7.5742
4.51188	7.5754
4.48845	7.5737
4.46525	7.5693
4.44229	7.5556
4.41957	7.5442
4.39708	7.5525
4.37481	7.5593
4.35277	7.5632
4.33096	7.5613
4.30935	7.5539
4.28797	7.5534
4.26679	7.562
4.24583	7.5737
4.22506	7.5766
4.2045	7.5605
4.18414	7.5505
4.16398	7.53
4.14401	7.5034
4.12423	7.4595
4.10464	7.4075
4.08523	7.3616
4.066	7.3262
4.04696	7.3015
4.02809	7.3078
4.0094	7.323
3.99088	7.3074
3.97253	7.3022
3.95435	7.2827
3.93634	7.2588
3.91848	7.2417
3.90079	7.2055
3.88326	7.1772
3.86589	7.1291
3.84867	7.0942
3.8316	7.0808
3.81468	7.0627
3.79791	7.0315
3.78129	7.0107
3.76482	6.9814
3.74848	6.9626
3.73229	6.9245
3.71624	6.8811
3.70032	6.8262
3.68454	6.7995
3.6689	6.7436
3.65338	6.7063
3.638	6.6694
3.62275	6.6301
3.60762	6.6067
3.59262	6.5845
3.57775	6.5505
3.56299	6.5432
3.54836	6.5349
3.53385	6.5266
3.51945	6.5222
3.50517	6.4914
3.49101	6.5032
3.47696	6.4831
3.46303	6.4741
3.4492	6.4477
3.43549	6.427
3.42188	6.4209
3.40838	6.4277
3.39499	6.4072
3.38171	6.404
3.36852	6.4031
3.35544	6.3652
3.34246	6.3413
3.32958	6.3135
3.3168	6.2807
3.30411	6.2898
3.29153	6.2483
3.27903	6.2317
3.26664	6.1936
3.25433	6.1416
3.24212	6.074
3.23	5.9685
3.21797	5.8237
3.20603	5.696
3.19418	5.5713
3.18241	5.4553
3.17074	5.3755
3.15914	5.3081
3.14763	5.2407
3.13621	5.1753
3.12487	5.1572
3.11361	5.1296
3.10243	5.1133
3.09133	5.0918
3.0803	5.083
3.06936	5.0793
3.0585	5.0879
3.04771	5.1013
3.037	5.1326
3.02636	5.175
3.0158	5.1914
3.00531	5.2251
2.99489	5.2786
2.98454	5.3013
2.97427	5.3367
2.96407	5.3657
2.95393	5.4197
2.94387	5.4661
2.93387	5.5115
2.92394	5.571
2.91408	5.6208
2.90429	5.6963
2.89456	5.7527
2.88489	5.812
2.87529	5.8706
2.86576	5.9631
2.85628	6.0493
2.84687	6.1496
2.83752	6.2068
2.82823	6.2988
2.81901	6.3992
2.80984	6.487
2.80073	6.5998
2.79168	6.675
2.78269	6.8078
2.77376	6.917
2.76488	7.0691
2.75606	7.1977
2.7473	7.4004
2.73859	7.5593
2.72994	7.7695
2.72134	7.9494
2.7128	8.1142
2.70431	8.2409
2.69587	8.3498
2.68748	8.4416
2.67915	8.572
2.67087	8.6604
2.66264	8.7209
2.65446	8.8398
2.64633	8.9463
2.63825	9.0146
2.63021	9.0625
2.62223	9.1191
2.6143	9.1887
2.60641	9.1941
2.59857	9.248
2.59078	9.2654
2.58304	9.2732
2.57534	9.3213
2.56768	9.2944
2.56008	9.2866
2.55251	9.2197
2.54499	9.1704
2.53752	9.112
2.53009	9.0669
2.5227	8.9712
2.51536	8.9809
2.50806	8.9682
2.5008	8.9697
2.49358	8.9807
2.4864	9.0488
2.47927	9.0835
2.47218	9.1133
2.46512	9.0874
2.45811	9.1172
2.45114	9.1103
2.4442	9.0488
2.43731	8.9983
2.43045	8.9736
2.42363	8.9643
2.41685	8.9004
2.41011	8.9748
2.40341	9.0346
2.39674	9.1401
2.39011	9.2612
2.38352	9.3447
2.37696	9.4887
2.37044	9.5254
2.36395	9.5732
2.35751	9.6357
2.35109	9.675
2.34471	9.6789
2.33836	9.6894
2.33205	9.7009
2.32578	9.7309
2.31953	9.7846
2.31332	9.7832
2.30714	9.8066
2.301	9.8391
2.29489	9.8559
2.28881	9.8752
2.28276	9.8374
2.27675	9.8908
2.27076	9.906
2.26481	9.9111
2.25889	9.9468
2.253	9.9389
2.24714	9.9458
2.24131	9.9856
2.23551	10.0246
2.22974	10.049
2.224	10.094
2.21829	10.0805
2.21261	10.1176
2.20696	10.1211
2.20134	10.124
2.19574	10.1623
2.19018	10.1565
2.18464	10.1513
2.17913	10.1606
2.17365	10.1811
2.16819	10.2041
2.16277	10.2392
2.15737	10.2466
2.15199	10.2217
2.14665	10.2119
2.14133	10.2297
2.13603	10.2334
2.13077	10.2529
2.12552	10.302
2.12031	10.3032
2.11512	10.2607
2.10995	10.2942
2.10481	10.25
2.0997	10.2358
2.09461	10.2522
2.08954	10.2715
2.0845	10.2881
2.07948	10.2529
