Name: Hornblende Ca2(Fe+2,Mg)4Al(Si7Al)O22(OH,F)2
Type: Mineral
Class: Silicates
Subclass: Inosilicates (Amphibole Group)
Particle Size: Solid (random polished surface)
Sample No.: hornblen.1
Owner: JHU
Wavelength Range: IR
Origin: Gore Mountain, New York via Hunt and Salisbury Collection,
Description: The specimen was a cluster of very dark green single
Measurement: Bidirectional reflectance
X Units: Wavelength (micrometers)
Y Units: Reflectance (percent)
wavelength	value
25.0442	34.9765
24.3388	36.5204
23.6719	36.6366
23.0407	38.8266
22.4422	40.1513
21.8741	41.5702
21.334	41.8891
20.8199	42.2543
20.33	41.7528
19.8627	42.6122
19.4163	46.1522
18.9896	49.5782
18.5812	49.8866
18.19	46.9491
17.815	43.6925
17.4551	38.9953
17.1094	32.1742
16.7772	24.675
16.4576	20.8188
16.15	19.9047
15.8537	20.478
15.568	20.9448
15.2925	21.4628
15.0265	21.5776
14.7697	21.7119
14.5214	21.7726
14.2814	22.048
14.0492	22.4089
13.8244	23.1376
13.6067	23.7997
13.3957	23.7861
13.1912	23.8149
12.9929	24.2202
12.8004	24.874
12.6135	25.2548
12.432	25.5131
12.2557	25.9047
12.0843	26.7739
11.9176	27.8315
11.7555	28.8539
11.5977	29.6418
11.444	30.1552
11.2944	30.8981
11.1487	31.601
11.0067	32.6308
10.8682	33.955
10.7332	35.352
10.6015	37.1276
10.473	39.2382
10.3476	42.1918
10.2251	45.192
10.1056	46.889
9.98873	46.2177
9.87458	43.5341
9.763	42.5763
9.65392	44.2018
9.54724	46.0804
9.44291	46.3883
9.34082	45.2006
9.24091	43.3312
9.14312	41.2948
9.04739	39.0885
8.95363	34.3876
8.8618	27.5844
8.77183	25.1232
8.68368	21.4885
8.59727	14.7607
8.51257	12.1162
8.42951	12.5708
8.34807	13.4465
8.26819	13.8935
8.18981	14.0861
8.11292	14.2546
8.03745	14.6528
7.96337	15.1128
7.89064	15.5463
7.81924	15.9279
7.74911	16.1972
7.68023	16.4729
7.61256	16.7473
7.54608	16.966
7.48074	17.1511
7.41653	17.3327
7.35341	17.5002
7.29136	17.6687
7.23034	17.8313
7.17033	17.9824
7.11132	18.1052
7.05327	18.2639
6.99616	18.3747
6.93996	18.4609
6.88467	18.5139
6.83024	18.6904
6.77667	18.8054
6.72393	18.9064
6.67201	19.0197
6.62089	19.1574
6.57054	19.2465
6.52095	19.3129
6.4721	19.4062
6.42398	19.4536
6.37657	19.4995
6.32986	19.517
6.28382	19.5437
6.23845	19.5344
6.19373	19.6149
6.14965	19.623
6.10619	19.6613
6.06334	19.6862
6.02109	19.6562
5.97942	19.666
5.93832	19.6491
5.89778	19.6374
5.8578	19.6547
5.81835	19.6784
5.77943	19.6999
5.74103	19.7233
5.70314	19.7805
5.66574	19.8225
5.62883	19.8654
5.5924	19.9377
5.55644	19.9946
5.52093	20.0634
5.48588	20.0932
5.45127	20.1472
5.41709	20.1738
5.38334	20.1916
5.35	20.173
5.31708	20.2062
5.28456	20.2429
5.25243	20.2622
5.2207	20.2834
5.18934	20.279
5.15836	20.2668
5.12775	20.2651
5.09749	20.2702
5.0676	20.2551
5.03805	20.2331
5.00884	20.2099
4.97998	20.1967
4.95144	20.1928
4.92322	20.1848
4.89533	20.1652
4.86775	20.1545
4.84048	20.1513
4.81351	20.156
4.78684	20.152
4.76047	20.1452
4.73439	20.1555
4.70859	20.1511
4.68306	20.1745
4.65782	20.1845
4.63284	20.2036
4.60814	20.2272
4.58369	20.2373
4.5595	20.2531
4.53557	20.2556
4.51188	20.2775
4.48845	20.2783
4.46525	20.2558
4.44229	20.2741
4.41957	20.2648
4.39708	20.2465
4.37481	20.246
4.35277	20.2263
4.33096	20.2214
4.30935	20.1984
4.28797	20.1738
4.26679	20.1486
4.24583	20.1259
4.22506	20.1088
4.2045	20.0961
4.18414	20.0751
4.16398	20.0654
4.14401	20.0698
4.12423	20.07
4.10464	20.0561
4.08523	20.0498
4.066	20.0451
4.04696	20.0434
4.02809	20.0429
4.0094	20.0424
3.99088	20.0471
3.97253	20.0429
3.95435	20.0363
3.93634	20.0349
3.91848	20.0292
3.90079	20.0292
3.88326	19.996
3.86589	19.9807
3.84867	19.9748
3.8316	19.9626
3.81468	19.9428
3.79791	19.9167
3.78129	19.9047
3.76482	19.894
3.74848	19.8715
3.73229	19.8452
3.71624	19.8254
3.70032	19.791
3.68454	19.7653
3.6689	19.7558
3.65338	19.7482
3.638	19.7231
3.62275	19.7189
3.60762	19.7011
3.59262	19.6948
3.57775	19.6562
3.56299	19.6386
3.54836	19.6064
3.53385	19.5849
3.51945	19.5419
3.50517	19.496
3.49101	19.466
3.47696	19.4411
3.46303	19.4301
3.4492	19.3986
3.43549	19.3657
3.42188	19.3535
3.40838	19.3251
3.39499	19.3183
3.38171	19.2924
3.36852	19.3159
3.35544	19.3032
3.34246	19.3076
3.32958	19.3068
3.3168	19.2875
3.30411	19.2492
3.29153	19.2626
3.27903	19.2641
3.26664	19.2148
3.25433	19.2084
3.24212	19.1572
3.23	19.1606
3.21797	19.1425
3.20603	19.1367
3.19418	19.1074
3.18241	19.0773
3.17074	19.0678
3.15914	19.0483
3.14763	19.0268
3.13621	18.9809
3.12487	18.9824
3.11361	18.9609
3.10243	18.9272
3.09133	18.9106
3.0803	18.8894
3.06936	18.8574
3.0585	18.8491
3.04771	18.8293
3.037	18.8076
3.02636	18.7778
3.0158	18.7607
3.00531	18.7102
2.99489	18.7153
2.98454	18.6875
2.97427	18.6503
2.96407	18.624
2.95393	18.602
2.94387	18.5539
2.93387	18.538
2.92394	18.5051
2.91408	18.4477
2.90429	18.4533
2.89456	18.4455
2.88489	18.4084
2.87529	18.3745
2.86576	18.3793
2.85628	18.3632
2.84687	18.3325
2.83752	18.3303
2.82823	18.3149
2.81901	18.299
2.80984	18.2963
2.80073	18.267
2.79168	18.2685
2.78269	18.2736
2.77376	18.2355
2.76488	18.207
2.75606	18.1877
2.7473	18.1516
2.73859	18.1279
2.72994	18.0647
2.72134	18.0532
2.7128	18.0122
2.70431	17.9765
2.69587	17.966
2.68748	17.9848
2.67915	17.9873
2.67087	18
2.66264	17.9875
2.65446	17.9309
2.64633	17.8996
2.63825	17.872
2.63021	17.8769
2.62223	17.8242
2.6143	17.833
2.60641	17.8039
2.59857	17.8251
2.59078	17.7951
2.58304	17.8
2.57534	17.7346
2.56768	17.707
2.56008	17.7412
2.55251	17.666
2.54499	17.6438
2.53752	17.6674
2.53009	17.6118
2.5227	17.6503
2.51536	17.5913
2.50806	17.5908
2.5008	17.5761
2.49358	17.5805
2.4864	17.5459
2.47927	17.5097
2.47218	17.5146
2.46512	17.5205
2.45811	17.4863
2.45114	17.4951
2.4442	17.5029
2.43731	17.4804
2.43045	17.4594
2.42363	17.3994
2.41685	17.3847
2.41011	17.4204
2.40341	17.3794
2.39674	17.3955
2.39011	17.3359
2.38352	17.3447
2.37696	17.3305
2.37044	17.3164
2.36395	17.2524
2.35751	17.2636
2.35109	17.249
2.34471	17.2402
2.33836	17.2133
2.33205	17.2041
2.32578	17.1962
2.31953	17.2172
2.31332	17.1919
2.30714	17.1757
2.301	17.1684
2.29489	17.1777
2.28881	17.1591
2.28276	17.1333
2.27675	17.145
2.27076	17.1445
2.26481	17.1215
2.25889	17.1274
2.253	17.1377
2.24714	17.0937
2.24131	17.0942
2.23551	17.1235
2.22974	16.997
2.224	17.0214
2.21829	17.0468
2.21261	17.0219
2.20696	16.977
2.20134	16.9209
2.19574	16.934
2.19018	17.0122
2.18464	16.9751
2.17913	16.893
2.17365	16.9218
2.16819	16.8925
2.16277	16.8769
2.15737	16.8676
2.15199	16.8208
2.14665	16.811
2.14133	16.7978
2.13603	16.8086
2.13077	16.7929
2.12552	16.7793
2.12031	16.7763
2.11512	16.7451
2.10995	16.6777
2.10481	16.7002
2.0997	16.6728
2.09461	16.7119
2.08954	16.7539
2.0845	16.6757
2.07948	16.6533
