Name: Anorthite CaAl2Si2O8
Type: Mineral (Synthetic)
Class: Silicates
Subclass: Tectosilicates (Framework silicates) (Feldspar Group)
Particle Size: Coarse (75-250 Micrometers)
Sample No.: anorthite.1
Owner: JHU
Wavelength Range: IR
Origin: Sample from Bruce Hemingway, USGS; synthesized by James
Description: The sample was a coarse white powder.  The sample
Measurement: Bidirectional reflectance
X Units: Wavelength (micrometers)
Y Units: Reflectance (percent)
wavelength	value
25.044	3.6616
24.339	3.1196
23.672	3.0395
23.041	2.7036
22.442	2.4634
21.874	2.7349
21.334	2.855
20.82	2.9097
20.33	2.626
19.863	2.8393
19.416	2.9788
18.99	3.2263
18.581	3.4665
18.19	3.2915
17.815	3.4678
17.455	3.3725
17.109	3.3184
16.777	3.218
16.458	3.1079
16.15	3.2966
15.854	3.2778
15.568	2.4717
15.292	1.9851
15.027	2.1887
14.77	2.1006
14.521	1.9893
14.281	1.9778
14.049	2.04
13.824	2.1912
13.607	2.0837
13.396	2.0762
13.191	2.1333
12.993	1.9927
12.8	1.9265
12.614	2.0403
12.432	2.1985
12.256	2.2891
12.084	2.3799
11.918	2.4368
11.755	2.4988
11.598	2.6174
11.444	2.7937
11.294	3.0754
11.149	3.4226
11.007	3.637
10.868	3.8874
10.733	4.1597
10.602	4.2759
10.473	4.3213
10.348	4.0027
10.225	3.3513
10.106	3.124
9.989	2.957
9.875	2.9097
9.763	3.0906
9.654	3.0308
9.547	2.7522
9.443	2.4587
9.341	2.3188
9.241	2.3479
9.143	2.4204
9.047	2.5391
8.954	2.5691
8.862	2.6653
8.772	2.9592
8.684	3.3332
8.597	3.54
8.513	3.5691
8.43	3.4907
8.348	2.9497
8.268	1.8833
8.19	0.6418
8.113	0.3303
8.037	0.468
7.963	0.5881
7.891	0.6963
7.819	0.7903
7.749	0.8799
7.68	0.9551
7.613	1.0244
7.546	1.0813
7.481	1.1335
7.417	1.1816
7.353	1.2275
7.291	1.283
7.23	1.312
7.17	1.3469
7.111	1.3874
7.053	1.4185
6.996	1.4465
6.94	1.4751
6.885	1.4829
6.83	1.4929
6.777	1.499
6.724	1.5164
6.672	1.5181
6.621	1.5271
6.571	1.5373
6.521	1.554
6.472	1.5803
6.424	1.582
6.377	1.5847
6.33	1.5825
6.284	1.5767
6.238	1.5832
6.194	1.5837
6.15	1.5969
6.106	1.6082
6.063	1.6133
6.021	1.624
5.979	1.6753
5.938	1.7239
5.898	1.7964
5.858	1.8833
5.818	1.969
5.779	2.0586
5.741	2.1372
5.703	2.227
5.666	2.2949
5.629	2.3496
5.592	2.3799
5.556	2.3745
5.521	2.3508
5.486	2.3264
5.451	2.3242
5.417	2.3545
5.383	2.4316
5.35	2.5227
5.317	2.6096
5.285	2.6968
5.252	2.8044
5.221	2.9199
5.189	3.0481
5.158	3.2014
5.128	3.3586
5.097	3.498
5.068	3.6304
5.038	3.751
5.009	3.9072
4.98	4.0561
4.951	4.2204
4.923	4.375
4.895	4.5334
4.868	4.685
4.84	4.8359
4.814	4.9773
4.787	5.1001
4.76	5.2139
4.734	5.3511
4.709	5.5036
4.683	5.6692
4.658	5.8491
4.633	6.0683
4.608	6.3218
4.584	6.5732
4.56	6.7983
4.536	6.9997
4.512	7.1728
4.488	7.3098
4.465	7.4101
4.442	7.4509
4.42	7.4888
4.397	7.5378
4.375	7.6411
4.353	7.7861
4.331	7.9741
4.309	8.2151
4.288	8.477
4.267	8.7275
4.246	8.9297
4.225	9.0801
4.205	9.2109
4.184	9.3098
4.164	9.3801
4.144	9.4316
4.124	9.4824
4.105	9.5385
4.085	9.5808
4.066	9.6267
4.047	9.6572
4.028	9.7016
4.009	9.7246
3.991	9.7436
3.973	9.7717
3.954	9.8044
3.936	9.8347
3.918	9.8725
3.901	9.9065
3.883	9.9216
3.866	9.9414
3.849	9.9626
3.832	9.9917
3.815	10.0051
3.798	10.0361
3.781	10.0564
3.765	10.0537
3.748	10.0642
3.732	10.0527
3.716	10.0483
3.7	10.039
3.685	10.0442
3.669	10.0405
3.653	10.0517
3.638	10.06
3.623	10.0388
3.608	10.0483
3.593	10.0407
3.578	10.0464
3.563	10.031
3.548	10.0466
3.534	10.032
3.519	10.0368
3.505	9.9924
3.491	10.0039
3.477	10.008
3.463	10.0227
3.449	9.9948
3.435	9.9848
3.422	9.9204
3.408	9.9323
3.395	9.9741
3.382	9.9624
3.369	9.9804
3.355	10.0056
3.342	10.0156
3.33	10.0129
3.317	10.0073
3.304	10.0071
3.292	10.0017
3.279	9.9729
3.267	9.9565
3.254	9.9402
3.242	9.9409
3.23	9.9177
3.218	9.8933
3.206	9.875
3.194	9.8486
3.182	9.8327
3.171	9.8117
3.159	9.7998
3.148	9.7805
3.136	9.7573
3.125	9.751
3.114	9.748
3.102	9.7373
3.091	9.7241
3.08	9.7341
3.069	9.728
3.058	9.7212
3.048	9.7243
3.037	9.7346
3.026	9.7312
3.016	9.7248
3.005	9.7236
2.995	9.7356
2.985	9.7676
2.974	9.7546
2.964	9.7614
2.954	9.7744
2.944	9.781
2.934	9.801
2.924	9.8171
2.914	9.8147
2.904	9.8249
2.895	9.8615
2.885	9.8669
2.875	9.8493
2.866	9.8593
2.856	9.8596
2.847	9.8957
2.838	9.8913
2.828	9.914
2.819	9.9231
2.81	9.9414
2.801	9.9565
2.792	9.9741
2.783	9.9924
2.774	10.0188
2.765	10.0229
2.756	10.0219
2.747	10.0818
2.739	10.0893
2.73	10.1115
2.721	10.0459
2.713	10.2024
2.704	10.2339
2.696	10.2739
2.687	10.3183
2.679	10.3135
2.671	10.28
2.663	10.3676
2.654	10.3672
2.646	10.3347
2.638	10.3398
2.63	10.3242
2.622	10.3144
2.614	10.2993
2.606	10.2851
2.599	10.278
2.591	10.3054
2.583	10.2636
2.575	10.27
2.568	10.2741
2.56	10.2453
2.553	10.2422
2.545	10.2458
2.538	10.2187
2.53	10.1972
2.523	10.155
2.515	10.2038
2.508	10.178
2.501	10.154
2.494	10.1565
2.486	10.146
2.479	10.1548
2.472	10.101
2.465	10.081
2.458	10.0998
2.451	10.0918
2.444	10.0317
2.437	10.0317
2.43	10.0276
2.424	9.9975
2.417	10.0473
2.41	9.9975
2.403	9.9961
2.397	9.9897
2.39	9.9636
2.384	10.0017
2.377	9.9741
2.37	9.958
2.364	9.9497
2.358	9.9294
2.351	9.9404
2.345	9.9106
2.338	9.8979
2.332	9.8423
2.326	9.8696
2.32	9.8652
2.313	9.8769
2.307	9.8374
2.301	9.8503
2.295	9.8418
2.289	9.8559
2.283	9.8232
2.277	9.8154
2.271	9.803
2.265	9.7937
2.259	9.8052
2.253	9.7759
2.247	9.8225
2.241	9.7627
2.236	9.7737
2.23	9.7944
2.224	9.77
2.218	9.771
2.213	9.7651
2.207	9.7724
2.201	9.7856
2.196	9.7397
2.19	9.7436
2.185	9.7519
2.179	9.7324
2.174	9.7453
2.168	9.7851
2.163	9.7793
2.157	9.7451
2.152	9.7383
2.147	9.7522
2.141	9.7593
2.136	9.758
2.131	9.8156
2.126	9.7766
2.12	9.7846
2.115	9.7793
2.11	9.7668
2.105	9.7861
2.1	9.8371
2.095	9.8244
2.09	9.8589
2.085	9.7949
2.079	9.8108
