Name: Gypsum (selenite) CaSO4.2H2O
Type: Mineral
Class: Sulfates
Particle Size: Solid
Sample No.: gypsum.2
Owner: JHU
Wavelength Range: IR
Origin: Washington Co., Vermont, from Hunt and Salisbury Collection
Description: The sample appears to be pure semi-transparent
Measurement: Bidirectional reflectance
X Units: Wavelength (micrometers)
Y Units: Reflectance (percent)
wavelength	value
25.044	15.4843
24.339	15.6425
23.672	15.8564
23.041	16.7519
22.442	18.0322
21.874	19.622
21.334	20.8554
20.82	21.2226
20.33	21.0585
19.863	20.1308
19.416	18.5976
18.99	16.7216
18.581	14.7822
18.19	13.2465
17.815	12.9394
17.455	13.497
17.109	15.1399
16.777	19.206
16.458	21.9658
16.15	11.3283
15.854	8.2834
15.568	9.3039
15.292	11.8156
15.027	22.3242
14.77	30.0119
14.521	19.9936
14.281	9.8615
14.049	8.1125
13.824	8.1028
13.607	8.3332
13.396	8.603
13.191	8.8379
12.993	9.0503
12.8	9.3445
12.614	9.5832
12.432	9.7422
12.256	9.9697
12.084	10.1799
11.918	10.3784
11.755	10.5622
11.598	10.759
11.444	10.9721
11.294	11.1914
11.149	11.4301
11.007	11.6821
10.868	11.9345
10.733	12.1755
10.602	12.4301
10.473	12.6757
10.348	12.9306
10.225	13.1865
10.106	13.4931
9.989	13.9062
9.875	14.3501
9.763	14.7934
9.654	15.4697
9.547	16.3642
9.443	17.4648
9.341	19.0683
9.241	21.5036
9.143	25.7931
9.047	33.9699
8.954	45.9808
8.862	54.4388
8.772	65.4461
8.684	72.013
8.597	72.2386
8.513	64.6558
8.43	53.8121
8.348	49.9325
8.268	38.7924
8.19	23.7348
8.113	11.3352
8.037	5.1924
7.963	2.772
7.891	2.7497
7.819	3.2109
7.749	3.6833
7.68	4.1121
7.613	4.5227
7.546	4.8989
7.481	5.2263
7.417	5.5176
7.353	5.7898
7.291	6.0332
7.23	6.2436
7.17	6.4165
7.111	6.6172
7.053	6.771
6.996	6.9663
6.94	7.1335
6.885	7.2837
6.83	7.4175
6.777	7.5495
6.724	7.6899
6.672	7.8066
6.621	7.9438
6.571	8.0386
6.521	8.2395
6.472	8.417
6.424	8.5842
6.377	8.9106
6.33	9.302
6.284	9.8691
6.238	10.9558
6.194	13.9897
6.15	14.1779
6.106	5.532
6.063	6.2344
6.021	6.8796
5.979	7.3091
5.938	7.5505
5.898	7.3208
5.858	7.584
5.818	7.7038
5.779	7.8789
5.741	7.9665
5.703	8.0578
5.666	8.1494
5.629	8.2146
5.592	8.2788
5.556	8.3264
5.521	8.3879
5.486	8.4494
5.451	8.5107
5.417	8.5442
5.383	8.6155
5.35	8.6465
5.317	8.7192
5.285	8.7663
5.252	8.8135
5.221	8.8484
5.189	8.8821
5.158	8.9067
5.128	8.9341
5.097	8.959
5.068	8.9804
5.038	9.0014
5.009	9.0222
4.98	9.0449
4.951	9.0737
4.923	9.1074
4.895	9.1374
4.868	9.1721
4.84	9.2051
4.814	9.2475
4.787	9.2922
4.76	9.3293
4.734	9.3076
4.709	9.2856
4.683	9.2683
4.658	9.2793
4.633	9.3108
4.608	9.3374
4.584	9.3581
4.56	9.3662
4.536	9.3554
4.512	9.3471
4.488	9.334
4.465	9.3227
4.442	9.3169
4.42	9.3205
4.397	9.332
4.375	9.342
4.353	9.3525
4.331	9.3655
4.309	9.3823
4.288	9.4153
4.267	9.4487
4.246	9.4912
4.225	9.5371
4.205	9.5771
4.184	9.6191
4.164	9.6699
4.144	9.7185
4.124	9.7705
4.105	9.8249
4.085	9.8711
4.066	9.9111
4.047	9.9489
4.028	9.9936
4.009	10.0429
3.991	10.0903
3.973	10.1211
3.954	10.2026
3.936	10.2722
3.918	10.3242
3.901	10.3623
3.883	10.351
3.866	10.3301
3.849	10.4114
3.832	10.4233
3.815	10.4223
3.798	10.4087
3.781	10.4048
3.765	10.4038
3.748	10.3955
3.732	10.3843
3.716	10.3935
3.7	10.3989
3.685	10.3938
3.669	10.3852
3.653	10.375
3.638	10.3642
3.623	10.3532
3.608	10.3423
3.593	10.3286
3.578	10.313
3.563	10.2998
3.548	10.2834
3.534	10.2737
3.519	10.2717
3.505	10.2749
3.491	10.2651
3.477	10.2593
3.463	10.2544
3.449	10.2551
3.435	10.2583
3.422	10.2715
3.408	10.278
3.395	10.2817
3.382	10.2973
3.369	10.333
3.355	10.3491
3.342	10.3349
3.33	10.3564
3.317	10.4033
3.304	10.4258
3.292	10.4536
3.279	10.4819
3.267	10.5097
3.254	10.5415
3.242	10.5781
3.23	10.6196
3.218	10.6631
3.206	10.7114
3.194	10.7685
3.182	10.8301
3.171	10.9006
3.159	10.9724
3.148	11.0405
3.136	11.0918
3.125	11.1455
3.114	11.2207
3.102	11.3335
3.091	11.4258
3.08	11.2158
3.069	11.124
3.058	11.2651
3.048	11.4052
3.037	11.5446
3.026	11.6819
3.016	11.8261
3.005	11.9738
2.995	12.1262
2.985	12.3464
2.974	12.8235
2.964	13.7439
2.954	15.1772
2.944	17.0629
2.934	18.1918
2.924	16.8466
2.914	13.6801
2.904	10.5959
2.895	8.7732
2.885	8.0813
2.875	7.9126
2.866	7.8501
2.856	7.9429
2.847	8.2346
2.838	8.5268
2.828	8.843
2.819	9.2014
2.81	9.5801
2.801	9.7578
2.792	9.5195
2.783	8.9624
2.774	8.4792
2.765	8.1875
2.756	8.0754
2.747	8.1887
2.739	8.2434
2.73	8.384
2.721	8.4018
2.713	8.5171
2.704	8.6028
2.696	8.633
2.687	8.6965
2.679	8.6997
2.671	8.6719
2.663	8.7934
2.654	8.8225
2.646	8.8471
2.638	8.885
2.63	8.8352
2.622	8.9072
2.614	8.9336
2.606	8.8999
2.599	8.9785
2.591	8.9897
2.583	8.9797
2.575	9.0239
2.568	9.0566
2.56	9.0566
2.553	9.0791
2.545	9.1076
2.538	9.1223
2.53	9.1401
2.523	9.1518
2.515	9.1621
2.508	9.1731
2.501	9.1787
2.494	9.1858
2.486	9.1799
2.479	9.1836
2.472	9.1782
2.465	9.1826
2.458	9.186
2.451	9.1875
2.444	9.1858
2.437	9.1887
2.43	9.1963
2.424	9.1963
2.417	9.206
2.41	9.2168
2.403	9.2334
2.397	9.2632
2.39	9.2951
2.384	9.3437
2.377	9.3869
2.37	9.4375
2.364	9.4973
2.358	9.5559
2.351	9.6018
2.345	9.6582
2.338	9.6992
2.332	9.7368
2.326	9.7763
2.32	9.7881
2.313	9.7993
2.307	9.792
2.301	9.789
2.295	9.768
2.289	9.747
2.283	9.7109
2.277	9.6562
2.271	9.6103
2.265	9.6084
2.259	9.6396
2.253	9.6621
2.247	9.6816
2.241	9.6806
2.236	9.6635
2.23	9.6264
2.224	9.5708
2.218	9.5395
2.213	9.5713
2.207	9.6172
2.201	9.6528
2.196	9.6841
2.19	9.706
2.185	9.7256
2.179	9.7348
2.174	9.7505
2.168	9.7705
2.163	9.8052
2.157	9.8403
2.152	9.8691
2.147	9.8994
2.141	9.9277
2.136	9.9536
2.131	9.9814
2.126	10.0239
2.12	10.0747
2.115	10.1308
2.11	10.188
2.105	10.2524
2.1	10.3188
2.095	10.374
2.09	10.4243
2.085	10.4614
2.079	10.477
