Name: Cerussite, PbCO3
Type: Mineral
Class: Carbonates
Particle Size: Solid rough surface
Sample No.: cerussite.1
Owner: JHU
Wavelength Range: IR
Origin: Sample from Australia; donated by Norma Vergo.
Description: The sample was a light tan irregular mass and appeared
Measurement: Bidirectional reflectance
X Units: Wavelength (micrometers)
Y Units: Reflectance (percent)
wavelength	value
25.0442	1.7646
24.3388	1.9497
23.6719	2.0373
23.0407	2.145
22.4422	2.228
21.8741	2.3606
21.334	2.5022
20.8199	2.5474
20.33	2.6765
19.8627	2.8076
19.4163	2.9055
18.9896	2.9961
18.5812	3.0696
18.19	3.1084
17.815	3.1291
17.4551	3.0842
17.1094	3.0715
16.7772	3.1865
16.4576	3.2751
16.15	3.1545
15.8537	3.1289
15.568	3.2329
15.2925	3.3406
15.0265	3.4326
14.7697	5.8633
14.5214	1.8967
14.2814	2.4619
14.0492	2.9744
13.8244	2.8335
13.6067	2.802
13.3957	3.0415
13.1912	3.1062
12.9929	3.0456
12.8004	2.9822
12.6135	3.0388
12.432	3.0793
12.2557	3.0801
12.0843	3.2444
11.9176	7.0896
11.7555	2.9167
11.5977	2.8838
11.444	2.9031
11.2944	3.0991
11.1487	3.2273
11.0067	3.3625
10.8682	3.3874
10.7332	3.386
10.6015	3.3513
10.473	3.352
10.3476	3.3787
10.2251	3.3948
10.1056	3.2114
9.98873	3.2283
9.87458	3.4138
9.763	3.4831
9.65392	3.3911
9.54724	3.2893
9.44291	3.0884
9.34082	3.2659
9.24091	3.293
9.14312	3.2017
9.04739	3.1763
8.95363	3.2073
8.8618	3.2839
8.77183	3.2937
8.68368	3.3237
8.59727	3.3735
8.51257	3.4119
8.42951	3.4485
8.34807	3.4792
8.26819	3.5222
8.18981	3.5718
8.11292	3.6245
8.03745	3.6855
7.96337	3.75
7.89064	3.8337
7.81924	3.9358
7.74911	4.0493
7.68023	4.1362
7.61256	4.2183
7.54608	4.3791
7.48074	4.6111
7.41653	4.9431
7.35341	5.4685
7.29136	6.3413
7.23034	7.6203
7.17033	8.0178
7.11132	7.4079
7.05327	6.5205
6.99616	6.7263
6.93996	7.195
6.88467	7.0617
6.83024	6.709
6.77667	6.2641
6.72393	5.5752
6.67201	4.3826
6.62089	2.7451
6.57054	1.4211
6.52095	0.8774
6.4721	0.8979
6.42398	1.0295
6.37657	1.1638
6.32986	1.2922
6.28382	1.404
6.23845	1.5112
6.19373	1.5952
6.14965	1.6892
6.10619	1.7827
6.06334	1.8865
6.02109	2.0046
5.97942	2.1208
5.93832	2.2612
5.89778	2.3315
5.8578	2.5093
5.81835	2.3713
5.77943	2.085
5.74103	2.0601
5.70314	2.7788
5.66574	3.2334
5.62883	3.3118
5.5924	3.5691
5.55644	3.9538
5.52093	4.0884
5.48588	4.1352
5.45127	4.2363
5.41709	4.3796
5.38334	4.5127
5.35	4.5718
5.31708	4.6023
5.28456	4.6582
5.25243	4.7407
5.2207	4.8386
5.18934	4.886
5.15836	4.9079
5.12775	4.925
5.09749	4.9043
5.0676	4.8291
5.03805	4.7153
5.00884	4.5823
4.97998	4.4551
4.95144	4.2685
4.92322	3.8223
4.89533	3.4089
4.86775	3.446
4.84048	3.7383
4.81351	4.094
4.78684	4.2707
4.76047	4.282
4.73439	4.4563
4.70859	4.5254
4.68306	4.4473
4.65782	4.1758
4.63284	4.2388
4.60814	4.6086
4.58369	4.6465
4.5595	4.6794
4.53557	4.6494
4.51188	4.593
4.48845	4.5527
4.46525	4.6196
4.44229	4.6401
4.41957	4.6089
4.39708	4.5525
4.37481	4.4233
4.35277	4.2234
4.33096	3.9766
4.30935	3.7234
4.28797	3.4763
4.26679	3.2532
4.24583	3.1345
4.22506	3.0671
4.2045	2.9853
4.18414	2.8699
4.16398	2.7358
4.14401	2.657
4.12423	2.7139
4.10464	2.8166
4.08523	2.8816
4.066	2.9109
4.04696	2.9287
4.02809	2.967
4.0094	3.0249
3.99088	3.0542
3.97253	3.0891
3.95435	3.1531
3.93634	3.3037
3.91848	3.6047
3.90079	3.8867
3.88326	4.062
3.86589	4.1514
3.84867	4.1907
3.8316	4.156
3.81468	4.0913
3.79791	3.9709
3.78129	3.834
3.76482	3.6628
3.74848	3.5046
3.73229	3.406
3.71624	3.2905
3.70032	3.1601
3.68454	2.9988
3.6689	2.8955
3.65338	2.8447
3.638	2.8464
3.62275	2.8567
3.60762	2.8481
3.59262	2.8491
3.57775	2.8516
3.56299	2.8606
3.54836	2.8706
3.53385	2.9067
3.51945	2.9492
3.50517	3.0264
3.49101	3.1558
3.47696	3.3113
3.46303	3.4326
3.4492	3.5439
3.43549	3.6421
3.42188	3.7307
3.40838	3.8418
3.39499	3.9465
3.38171	4.0178
3.36852	4.0918
3.35544	4.1579
3.34246	4.2056
3.32958	4.2537
3.3168	4.279
3.30411	4.2746
3.29153	4.2434
3.27903	4.189
3.26664	4.094
3.25433	4.0171
3.24212	3.9304
3.23	3.9499
3.21797	4.0141
3.20603	4.0481
3.19418	4.0356
3.18241	4.012
3.17074	3.9932
3.15914	3.9729
3.14763	3.9421
3.13621	3.9023
3.12487	3.8987
3.11361	3.8684
3.10243	3.8567
3.09133	3.8386
3.0803	3.8313
3.06936	3.7991
3.0585	3.7937
3.04771	3.7659
3.037	3.7585
3.02636	3.7388
3.0158	3.7163
3.00531	3.7046
2.99489	3.6743
2.98454	3.666
2.97427	3.6394
2.96407	3.6299
2.95393	3.604
2.94387	3.5725
2.93387	3.5535
2.92394	3.5505
2.91408	3.5044
2.90429	3.4258
2.89456	3.447
2.88489	3.552
2.87529	3.6172
2.86576	3.6753
2.85628	3.696
2.84687	3.7063
2.83752	3.7744
2.82823	3.8249
2.81901	3.8772
2.80984	3.9302
2.80073	3.9907
2.79168	4.0344
2.78269	4.085
2.77376	4.1282
2.76488	4.1645
2.75606	4.2336
2.7473	4.3166
2.73859	4.3901
2.72994	4.5007
2.72134	4.5835
2.7128	4.6638
2.70431	4.7466
2.69587	4.7644
2.68748	4.7449
2.67915	4.6694
2.67087	4.5444
2.66264	4.3476
2.65446	4.2175
2.64633	4.2192
2.63825	4.2856
2.63021	4.3301
2.62223	4.334
2.6143	4.3562
2.60641	4.3823
2.59857	4.4204
2.59078	4.447
2.58304	4.4465
2.57534	4.478
2.56768	4.519
2.56008	4.5542
2.55251	4.5757
2.54499	4.5881
2.53752	4.5688
2.53009	4.5566
2.5227	4.5264
2.51536	4.4648
2.50806	4.418
2.5008	4.353
2.49358	4.3037
2.4864	4.2676
2.47927	4.2436
2.47218	4.2012
2.46512	4.165
2.45811	4.1323
2.45114	4.1182
2.4442	4.1072
2.43731	4.1389
2.43045	4.1125
2.42363	4.1174
2.41685	4.1145
2.41011	4.1279
2.40341	4.1533
2.39674	4.1672
2.39011	4.1653
2.38352	4.1938
2.37696	4.1941
2.37044	4.1907
2.36395	4.1753
2.35751	4.1846
2.35109	4.1841
2.34471	4.1929
2.33836	4.2012
2.33205	4.1985
2.32578	4.1933
2.31953	4.2139
2.31332	4.2161
2.30714	4.2239
2.301	4.2363
2.29489	4.2407
2.28881	4.248
2.28276	4.2405
2.27675	4.2307
2.27076	4.2588
2.26481	4.2368
2.25889	4.2353
2.253	4.2446
2.24714	4.2532
2.24131	4.2451
2.23551	4.3008
2.22974	4.2641
2.224	4.2676
2.21829	4.27
2.21261	4.2939
2.20696	4.3271
2.20134	4.3352
2.19574	4.3242
2.19018	4.3352
2.18464	4.3381
2.17913	4.3193
2.17365	4.3176
2.16819	4.3235
2.16277	4.3223
2.15737	4.3413
2.15199	4.3274
2.14665	4.3616
2.14133	4.3379
2.13603	4.3701
2.13077	4.3682
2.12552	4.343
2.12031	4.3926
2.11512	4.3769
2.10995	4.3652
2.10481	4.3535
2.0997	4.3823
2.09461	4.3652
2.08954	4.3945
2.0845	4.3872
2.07948	4.3833
