Name: Monticellite CaMgSiO4
Type: Mineral
Class: Silicates
Subclass: Nesosilicates (Isolated tetrahedra); (OlivineGroup)
Particle Size: Fine  (Less than 2 Micrometers)
Sample No.: monticell.1
Owner: JHU
Wavelength Range: IR
Origin: Magnet Cove, Arkansas via the Smithsonian (NMNH 79051-1)
Description: The sample was composed of one large fragment and two
Measurement: Transmission
X Units: Wavelength (micrometers)
Y Units: Transmittance (percent)
wavelength	value
25.0442	51.2967
24.3388	42.8436
23.6719	36.9062
23.0407	35.5819
22.4422	41.3847
21.8741	53.3592
21.334	47.0643
20.8199	41.7343
20.33	45.3768
19.8627	40.9022
19.4163	33.0312
18.9896	36.1298
18.5812	44.1561
18.19	59.5545
17.815	67.5399
17.4551	66.574
17.1094	51.2782
16.7772	44.7577
16.4576	60.4735
16.15	73.4969
15.8537	80.3475
15.568	84.6111
15.2925	87.6297
15.0265	89.1306
14.7697	90.6658
14.5214	90.6355
14.2814	90.5095
14.0492	89.5642
13.8244	88.5945
13.6067	87.8133
13.3957	86.2185
13.1912	84.4456
12.9929	82.0686
12.8004	78.4729
12.6135	75.1795
12.432	70.4886
12.2557	63.7132
12.0843	47.3143
11.9176	60.867
11.7555	49.7616
11.5977	36.2128
11.444	20.1957
11.2944	10.9438
11.1487	14.6054
11.0067	18.5195
10.8682	24.934
10.7332	32.7485
10.6015	31.9164
10.473	36.4848
10.3476	26.54
10.2251	23.1606
10.1056	26.5117
9.98873	35.3437
9.87458	43.4735
9.763	48.3759
9.65392	51.3519
9.54724	53.2445
9.44291	54.8324
9.34082	56.245
9.24091	57.9925
9.14312	59.3094
9.04739	63.117
8.95363	67.8983
8.8618	71.326
8.77183	73.119
8.68368	74.7566
8.59727	76.2117
8.51257	77.991
8.42951	79.7459
8.34807	81.45
8.26819	83.292
8.18981	85.033
8.11292	86.8848
8.03745	88.9285
7.96337	91.1238
7.89064	92.5859
7.81924	93.4026
7.74911	93.8272
7.68023	94.1738
7.61256	94.7666
7.54608	95.1543
7.48074	95.408
7.41653	95.5681
7.35341	95.7449
7.29136	95.7703
7.23034	95.6882
7.17033	95.1794
7.11132	94.7341
7.05327	94.2068
6.99616	93.7019
6.93996	92.3535
6.88467	91.7683
6.83024	91.6631
6.77667	91.0088
6.72393	91.5173
6.67201	92.655
6.62089	93.9053
6.57054	94.5046
6.52095	95.0801
6.4721	95.366
6.42398	95.0352
6.37657	94.5955
6.32986	93.3357
6.28382	91.8926
6.23845	90.5886
6.19373	88.0984
6.14965	85.8692
6.10619	86.9207
6.06334	87.0984
6.02109	85.7234
5.97942	86.8367
5.93832	90.669
5.89778	94.0022
5.8578	96.2666
5.81835	96.7686
5.77943	97.1162
5.74103	97.1672
5.70314	96.8987
5.66574	96.9463
5.62883	97.2891
5.5924	97.4756
5.55644	97.4607
5.52093	97.5303
5.48588	97.6885
5.45127	97.7976
5.41709	97.7888
5.38334	97.9111
5.35	97.8747
5.31708	97.9014
5.28456	97.9353
5.25243	98.0613
5.2207	98.1282
5.18934	98.1055
5.15836	98.1064
5.12775	98.156
5.09749	98.0508
5.0676	97.9656
5.03805	97.8718
5.00884	97.9285
4.97998	98.0793
4.95144	98.1702
4.92322	98.2087
4.89533	98.1804
4.86775	98.2165
4.84048	98.2097
4.81351	98.0969
4.78684	98.1287
4.76047	98.1062
4.73439	98.0959
4.70859	98.0598
4.68306	98.029
4.65782	98.0207
4.63284	97.9773
4.60814	97.9973
4.58369	97.9397
4.5595	97.8811
4.53557	97.8972
4.51188	97.782
4.48845	97.7966
4.46525	97.7493
4.44229	97.6921
4.41957	97.7165
4.39708	97.7507
4.37481	97.6511
4.35277	97.5745
4.33096	97.5901
4.30935	97.5105
4.28797	97.3694
4.26679	97.3542
4.24583	97.2649
4.22506	97.2664
4.2045	97.4407
4.18414	97.406
4.16398	97.3684
4.14401	97.3601
4.12423	97.2639
4.10464	97.366
4.08523	97.2273
4.066	97.1404
4.04696	97.0862
4.02809	97.1111
4.0094	97.0349
3.99088	96.9065
3.97253	96.9021
3.95435	96.908
3.93634	96.8206
3.91848	96.8694
3.90079	96.8186
3.88326	96.6472
3.86589	96.5691
3.84867	96.5178
3.8316	96.301
3.81468	96.4221
3.79791	96.2698
3.78129	96.3201
3.76482	96.24
3.74848	96.1482
3.73229	96.0398
3.71624	96.0251
3.70032	95.8616
3.68454	95.8948
3.6689	95.7678
3.65338	95.7678
3.638	95.7307
3.62275	95.5525
3.60762	95.4646
3.59262	95.3103
3.57775	95.3806
3.56299	95.2854
3.54836	95.1702
3.53385	95.1741
3.51945	95.2502
3.50517	95.0837
3.49101	95.1423
3.47696	95.0652
3.46303	95.074
3.4492	95.051
3.43549	94.8577
3.42188	94.6326
3.40838	94.4197
3.39499	94.3474
3.38171	94.1462
3.36852	93.9729
3.35544	93.7068
3.34246	93.572
3.32958	93.4529
3.3168	93.2888
3.30411	93.1814
3.29153	93.0393
3.27903	92.8108
3.26664	92.7151
3.25433	92.592
3.24212	92.3557
3.23	92.1526
3.21797	91.9451
3.20603	91.5584
3.19418	91.3914
3.18241	91.1814
3.17074	90.7839
3.15914	90.4148
3.14763	89.7761
3.13621	89.2713
3.12487	88.698
3.11361	88.5115
3.10243	88.365
3.09133	88.2927
3.0803	87.8904
3.06936	87.5974
3.0585	87.3904
3.04771	87.3006
3.037	86.9851
3.02636	86.2791
3.0158	85.5271
3.00531	84.6248
2.99489	83.826
2.98454	83.1795
2.97427	82.4099
2.96407	81.2898
2.95393	80.3455
2.94387	79.6834
2.93387	79.2205
2.92394	78.6873
2.91408	78.4529
2.90429	78.7283
2.89456	78.9685
2.88489	79.3289
2.87529	79.8221
2.86576	80.4353
2.85628	81.4295
2.84687	82.4695
2.83752	83.4617
2.82823	84.1873
2.81901	84.7615
2.80984	85.3045
2.80073	85.6072
2.79168	86.2322
2.78269	86.8748
2.77376	87.2888
2.76488	87.7029
2.75606	88.3201
2.7473	88.6931
2.73859	88.574
2.72994	89.0545
2.72134	88.8367
2.7128	86.8054
2.70431	88.0916
2.69587	90.0398
2.68748	90.7048
2.67915	90.8943
2.67087	91.0554
2.66264	90.8748
2.65446	90.8562
2.64633	91.0115
2.63825	90.9646
2.63021	90.7576
2.62223	90.6365
2.6143	90.7273
2.60641	90.5007
2.59857	90.5154
2.59078	90.7673
2.58304	90.4724
2.57534	90.3689
2.56768	90.2224
2.56008	90.0877
2.55251	90.2478
2.54499	90.2478
2.53752	90.2205
2.53009	89.9763
2.5227	89.947
2.51536	89.7517
2.50806	89.7888
2.5008	89.9705
2.49358	89.7693
2.4864	89.6951
2.47927	89.6365
2.47218	89.4451
2.46512	89.5857
2.45811	89.6756
2.45114	89.406
2.4442	89.3631
2.43731	89.0701
2.43045	89.322
2.42363	89.3474
2.41685	89.2849
2.41011	89.4002
2.40341	88.9256
2.39674	88.8924
2.39011	88.9373
2.38352	88.8123
2.37696	88.9236
2.37044	88.7224
2.36395	88.8279
2.35751	88.5779
2.35109	88.533
2.34471	88.6658
2.33836	88.4392
2.33205	88.4138
2.32578	88.4216
2.31953	87.9627
2.31332	88.3396
2.30714	88.324
2.301	88.2595
2.29489	87.8845
2.28881	88.0935
2.28276	88.117
2.27675	88.1658
2.27076	88.3045
2.26481	87.9627
2.25889	87.5779
2.253	87.9392
2.24714	87.8826
2.24131	87.9295
2.23551	87.572
2.22974	87.8201
2.224	87.572
2.21829	87.4451
2.21261	87.5467
2.20696	87.533
2.20134	87.2986
2.19574	87.5506
2.19018	87.7068
2.18464	87.2576
2.17913	87.1287
2.17365	87.1209
2.16819	87.2615
2.16277	87.3396
2.15737	87.031
2.15199	86.8396
2.14665	87.3201
2.14133	86.617
2.13603	86.7888
2.13077	87.0076
2.12552	87.2185
2.12031	87.0349
2.11512	86.9373
2.10995	86.6092
2.10481	86.8787
2.0997	86.8513
2.09461	86.9256
2.08954	86.5076
2.0845	86.9138
2.07948	86.8357
