Name: Nepheline (Na,K)AlSiO4
Type: Mineral
Class: Silicates
Subclass: Tectosilicates (Framework Silicates); (Feldspathoid Group)
Particle Size: Solid
Sample No.: nephel.2
Owner: JHU
Wavelength Range: IR
Origin: Brevig, Norway via Norma Vergo
Description: The hand sample was a massive chunk of unusually dark
Measurement: Bidirectional reflectance
X Units: Wavelength (micrometers)
Y Units: Reflectance (percent)
wavelength	value
25.0442	14.8671
24.3388	15.4736
23.6719	15.3984
23.0407	16.4316
22.4422	18.6867
21.8741	21.7109
21.334	24.9777
20.8199	23.9096
20.33	14.0146
19.8627	8.2461
19.4163	9.4275
18.9896	9.186
18.5812	6.091
18.19	3.4465
17.815	3.6758
17.4551	4.2078
17.1094	4.4817
16.7772	4.9184
16.4576	5.3474
16.15	5.645
15.8537	5.8169
15.568	6.2275
15.2925	6.907
15.0265	7.8313
14.7697	8.8862
14.5214	10.75
14.2814	10.0578
14.0492	9.0742
13.8244	7.3076
13.6067	6.0439
13.3957	5.1235
13.1912	4.595
12.9929	4.4348
12.8004	4.612
12.6135	5.3157
12.432	5.8867
12.2557	6.2793
12.0843	6.6321
11.9176	6.9778
11.7555	7.3237
11.5977	7.7505
11.444	8.2456
11.2944	8.8735
11.1487	9.593
11.0067	10.5298
10.8682	11.6469
10.7332	13.1245
10.6015	14.8942
10.473	17.5769
10.3476	22.1306
10.2251	27.0248
10.1056	28.8652
9.98873	31.7795
9.87458	33.061
9.763	33.8466
9.65392	31.7646
9.54724	33.2091
9.44291	29.519
9.34082	26.4257
9.24091	23.9807
9.14312	24.9382
9.04739	24.9106
8.95363	23.2214
8.8618	21.9714
8.77183	20.071
8.68368	17.6381
8.59727	14.3525
8.51257	10.039
8.42951	5.696
8.34807	2.625
8.26819	1.1672
8.18981	0.6763
8.11292	0.5886
8.03745	0.6768
7.96337	0.8362
7.89064	1.009
7.81924	1.177
7.74911	1.3337
7.68023	1.4895
7.61256	1.6191
7.54608	1.7368
7.48074	1.8464
7.41653	1.946
7.35341	2.0398
7.29136	2.126
7.23034	2.2026
7.17033	2.2727
7.11132	2.3464
7.05327	2.417
6.99616	2.4814
6.93996	2.553
6.88467	2.6164
6.83024	2.6736
6.77667	2.7095
6.72393	2.7385
6.67201	2.7788
6.62089	2.8203
6.57054	2.8586
6.52095	2.9165
6.4721	2.9661
6.42398	3.0051
6.37657	3.0517
6.32986	3.093
6.28382	3.137
6.23845	3.1831
6.19373	3.2488
6.14965	3.2978
6.10619	3.1182
6.06334	3.0212
6.02109	3.0488
5.97942	3.0825
5.93832	3.1184
5.89778	3.1497
5.8578	3.1792
5.81835	3.2102
5.77943	3.2434
5.74103	3.2771
5.70314	3.2883
5.66574	3.3105
5.62883	3.3315
5.5924	3.3555
5.55644	3.3701
5.52093	3.3904
5.48588	3.4163
5.45127	3.4348
5.41709	3.458
5.38334	3.4817
5.35	3.4995
5.31708	3.5312
5.28456	3.5422
5.25243	3.5586
5.2207	3.562
5.18934	3.5596
5.15836	3.5576
5.12775	3.5608
5.09749	3.571
5.0676	3.5798
5.03805	3.5964
5.00884	3.6081
4.97998	3.6257
4.95144	3.6296
4.92322	3.6416
4.89533	3.6379
4.86775	3.6558
4.84048	3.6592
4.81351	3.6838
4.78684	3.6877
4.76047	3.7231
4.73439	3.7248
4.70859	3.7617
4.68306	3.7663
4.65782	3.8054
4.63284	3.8157
4.60814	3.8252
4.58369	3.8567
4.5595	3.8701
4.53557	3.8945
4.51188	3.9075
4.48845	3.9236
4.46525	3.9578
4.44229	3.9673
4.41957	3.9885
4.39708	4.0063
4.37481	4.0171
4.35277	4.0329
4.33096	4.0432
4.30935	4.0586
4.28797	4.0664
4.26679	4.0725
4.24583	4.082
4.22506	4.0859
4.2045	4.1003
4.18414	4.1089
4.16398	4.1208
4.14401	4.1196
4.12423	4.1323
4.10464	4.1287
4.08523	4.1455
4.066	4.1489
4.04696	4.155
4.02809	4.1631
4.0094	4.1702
3.99088	4.1716
3.97253	4.1694
3.95435	4.1699
3.93634	4.1733
3.91848	4.1843
3.90079	4.177
3.88326	4.1789
3.86589	4.1775
3.84867	4.1816
3.8316	4.1838
3.81468	4.1848
3.79791	4.1731
3.78129	4.1755
3.76482	4.1814
3.74848	4.1882
3.73229	4.1931
3.71624	4.1829
3.70032	4.1846
3.68454	4.1865
3.6689	4.1902
3.65338	4.1926
3.638	4.188
3.62275	4.185
3.60762	4.1716
3.59262	4.1765
3.57775	4.1807
3.56299	4.1726
3.54836	4.1682
3.53385	4.1511
3.51945	4.1555
3.50517	4.1516
3.49101	4.1384
3.47696	4.1291
3.46303	4.1194
3.4492	4.1262
3.43549	4.125
3.42188	4.1206
3.40838	4.1074
3.39499	4.0986
3.38171	4.0813
3.36852	4.0757
3.35544	4.0583
3.34246	4.0503
3.32958	4.0298
3.3168	4.0271
3.30411	4.019
3.29153	4.0107
3.27903	4.0044
3.26664	3.9809
3.25433	3.9739
3.24212	3.9551
3.23	3.9524
3.21797	3.9409
3.20603	3.9297
3.19418	3.9128
3.18241	3.8979
3.17074	3.886
3.15914	3.8691
3.14763	3.8501
3.13621	3.835
3.12487	3.8252
3.11361	3.8183
3.10243	3.7969
3.09133	3.7856
3.0803	3.7725
3.06936	3.7519
3.0585	3.7358
3.04771	3.7251
3.037	3.7056
3.02636	3.6982
3.0158	3.6836
3.00531	3.689
2.99489	3.6733
2.98454	3.668
2.97427	3.6401
2.96407	3.6406
2.95393	3.6191
2.94387	3.5845
2.93387	3.5684
2.92394	3.5547
2.91408	3.5264
2.90429	3.5044
2.89456	3.4907
2.88489	3.4724
2.87529	3.4419
2.86576	3.4233
2.85628	3.4087
2.84687	3.3774
2.83752	3.3784
2.82823	3.3467
2.81901	3.3179
2.80984	3.2839
2.80073	3.272
2.79168	3.2524
2.78269	3.2305
2.77376	3.2034
2.76488	3.1589
2.75606	3.1457
2.7473	3.1819
2.73859	3.2383
2.72994	3.3076
2.72134	3.376
2.7128	3.4121
2.70431	3.4575
2.69587	3.5002
2.68748	3.5239
2.67915	3.5188
2.67087	3.5198
2.66264	3.522
2.65446	3.5315
2.64633	3.5132
2.63825	3.5098
2.63021	3.51
2.62223	3.4924
2.6143	3.4778
2.60641	3.4805
2.59857	3.4453
2.59078	3.4307
2.58304	3.4141
2.57534	3.386
2.56768	3.3323
2.56008	3.3215
2.55251	3.3115
2.54499	3.2944
2.53752	3.2883
2.53009	3.2561
2.5227	3.2363
2.51536	3.2319
2.50806	3.2053
2.5008	3.2012
2.49358	3.1851
2.4864	3.1865
2.47927	3.1797
2.47218	3.178
2.46512	3.1728
2.45811	3.1633
2.45114	3.1411
2.4442	3.1807
2.43731	3.1738
2.43045	3.1846
2.42363	3.1567
2.41685	3.1675
2.41011	3.1626
2.40341	3.1743
2.39674	3.1274
2.39011	3.147
2.38352	3.1265
2.37696	3.1328
2.37044	3.1489
2.36395	3.1162
2.35751	3.1543
2.35109	3.1103
2.34471	3.1133
2.33836	3.1123
2.33205	3.0928
2.32578	3.0986
2.31953	3.1099
2.31332	3.1006
2.30714	3.0762
2.301	3.084
2.29489	3.1138
2.28881	3.1059
2.28276	3.1001
2.27675	3.0981
2.27076	3.1392
2.26481	3.0962
2.25889	3.1318
2.253	3.0957
2.24714	3.0786
2.24131	3.0762
2.23551	3.0864
2.22974	3.0962
2.224	3.1274
2.21829	3.1601
2.21261	3.1138
2.20696	3.1152
2.20134	3.1465
2.19574	3.1528
2.19018	3.1914
2.18464	3.1426
2.17913	3.1269
2.17365	3.1641
2.16819	3.168
2.16277	3.209
2.15737	3.1606
2.15199	3.1758
2.14665	3.1816
2.14133	3.1958
2.13603	3.2036
2.13077	3.1958
2.12552	3.2075
2.12031	3.2075
2.11512	3.2334
2.10995	3.2236
2.10481	3.2578
2.0997	3.2402
2.09461	3.2461
2.08954	3.2568
2.0845	3.3057
2.07948	3.293
