Name: Hematite a-Fe2O3
Type: Mineral
Class: Oxides
Subclass: (Hematite Group)
Particle Size: Fine  (0-74 micrometers)
Sample No.: hematite.1
Owner: JHU
Wavelength Range: IR
Origin: Frizington, Cumberland, England via the Smithsonian (sample
Description: The sample was a 2.5 cm x 2.5 cm x 1 cm sawn plate,
Measurement: Bidirectional reflectance
X Units: Wavelength (micrometers)
Y Units: Reflectance (percent)
wavelength	value
25.0442	1.7544
24.3388	2.3481
23.6719	2.2085
23.0407	2.5552
22.4422	2.5317
21.8741	2.6162
21.334	2.5034
20.8199	2.4189
20.33	1.8059
19.8627	1.5989
19.4163	2.0386
18.9896	2.3125
18.5812	2.5767
18.19	2.5935
17.815	2.6125
17.4551	2.6318
17.1094	2.5195
16.7772	2.5652
16.4576	2.5554
16.15	2.5276
15.8537	2.4228
15.568	2.3948
15.2925	2.3848
15.0265	1.864
14.7697	1.0037
14.5214	0.5044
14.2814	0.4712
14.0492	0.7034
13.8244	1.0686
13.6067	1.5483
13.3957	2.0832
13.1912	2.5466
12.9929	2.8713
12.8004	2.9587
12.6135	3.1177
12.432	3.3503
12.2557	3.4592
12.0843	3.511
11.9176	3.3286
11.7555	3.1118
11.5977	3.0889
11.444	3.1299
11.2944	3.1228
11.1487	3.0601
11.0067	2.9018
10.8682	2.9272
10.7332	3.0359
10.6015	3.0881
10.473	3.1914
10.3476	3.2688
10.2251	3.4341
10.1056	3.5288
9.98873	3.3779
9.87458	3.3227
9.763	3.1841
9.65392	2.9573
9.54724	2.9658
9.44291	2.9944
9.34082	3.0398
9.24091	3.1999
9.14312	3.3376
9.04739	3.4412
8.95363	3.6482
8.8618	3.8911
8.77183	4.1335
8.68368	4.3708
8.59727	4.6138
8.51257	4.9328
8.42951	5.3413
8.34807	5.8071
8.26819	6.3808
8.18981	7.0395
8.11292	7.7256
8.03745	8.3244
7.96337	8.7739
7.89064	9.0581
7.81924	9.2925
7.74911	9.4707
7.68023	9.5354
7.61256	9.4975
7.54608	9.4338
7.48074	9.3625
7.41653	9.3139
7.35341	9.2878
7.29136	9.2676
7.23034	9.2292
7.17033	9.2346
7.11132	9.1155
7.05327	9
6.99616	8.9109
6.93996	8.6965
6.88467	8.426
6.83024	8.1338
6.77667	8.0473
6.72393	7.8242
6.67201	7.4665
6.62089	7.1899
6.57054	7.0046
6.52095	7.0779
6.4721	7.3386
6.42398	7.7275
6.37657	8.2331
6.32986	8.667
6.28382	8.9245
6.23845	8.9436
6.19373	8.7202
6.14965	8.5237
6.10619	8.594
6.06334	8.8115
6.02109	9.1203
5.97942	9.4272
5.93832	9.6924
5.89778	10.0627
5.8578	10.384
5.81835	10.571
5.77943	10.8034
5.74103	10.9887
5.70314	11.1198
5.66574	11.1916
5.62883	11.237
5.5924	11.2639
5.55644	11.2705
5.52093	11.2849
5.48588	11.2592
5.45127	11.2434
5.41709	11.2038
5.38334	11.1711
5.35	11.1111
5.31708	11.0984
5.28456	11.0508
5.25243	11.0022
5.2207	10.9582
5.18934	10.9209
5.15836	10.8996
5.12775	10.9004
5.09749	10.9055
5.0676	10.8984
5.03805	10.8977
5.00884	10.8938
4.97998	10.8923
4.95144	10.8825
4.92322	10.8615
4.89533	10.8337
4.86775	10.811
4.84048	10.7693
4.81351	10.7378
4.78684	10.6884
4.76047	10.6479
4.73439	10.6052
4.70859	10.5781
4.68306	10.5522
4.65782	10.5412
4.63284	10.5476
4.60814	10.5691
4.58369	10.602
4.5595	10.6518
4.53557	10.6967
4.51188	10.7927
4.48845	10.8821
4.46525	10.9829
4.44229	11.0686
4.41957	11.1482
4.39708	11.2033
4.37481	11.2495
4.35277	11.2793
4.33096	11.301
4.30935	11.3073
4.28797	11.3132
4.26679	11.2707
4.24583	11.334
4.22506	11.3708
4.2045	11.3735
4.18414	11.3733
4.16398	11.3652
4.14401	11.3418
4.12423	11.3374
4.10464	11.3222
4.08523	11.3125
4.066	11.2871
4.04696	11.2597
4.02809	11.2214
4.0094	11.2024
3.99088	11.155
3.97253	11.1098
3.95435	11.0581
3.93634	10.9875
3.91848	10.9438
3.90079	10.872
3.88326	10.7998
3.86589	10.7072
3.84867	10.6259
3.8316	10.5298
3.81468	10.437
3.79791	10.341
3.78129	10.2375
3.76482	10.1281
3.74848	10.0156
3.73229	9.9175
3.71624	9.8015
3.70032	9.6985
3.68454	9.5637
3.6689	9.4477
3.65338	9.3359
3.638	9.2385
3.62275	9.1106
3.60762	9.0107
3.59262	8.8921
3.57775	8.7849
3.56299	8.6704
3.54836	8.5137
3.53385	8.3449
3.51945	8.0874
3.50517	7.6321
3.49101	7.6499
3.47696	7.6692
3.46303	7.6079
3.4492	7.4219
3.43549	7.1772
3.42188	6.7722
3.40838	6.7234
3.39499	6.9214
3.38171	6.885
3.36852	6.9939
3.35544	7.1169
3.34246	7.1167
3.32958	7.0613
3.3168	7.0044
3.30411	6.9233
3.29153	6.8284
3.27903	6.7693
3.26664	6.6836
3.25433	6.5937
3.24212	6.5173
3.23	6.4289
3.21797	6.3633
3.20603	6.2939
3.19418	6.199
3.18241	6.1264
3.17074	6.0425
3.15914	5.9792
3.14763	5.9055
3.13621	5.8303
3.12487	5.7778
3.11361	5.7219
3.10243	5.6589
3.09133	5.6006
3.0803	5.5539
3.06936	5.5015
3.0585	5.4492
3.04771	5.4143
3.037	5.3584
3.02636	5.2944
3.0158	5.2385
3.00531	5.1758
2.99489	5.0859
2.98454	5.0261
2.97427	4.9404
2.96407	4.8491
2.95393	4.7361
2.94387	4.6914
2.93387	4.6992
2.92394	4.7695
2.91408	4.8005
2.90429	4.8511
2.89456	4.9492
2.88489	5.0554
2.87529	5.1299
2.86576	5.2078
2.85628	5.2576
2.84687	5.3594
2.83752	5.5032
2.82823	5.6616
2.81901	5.8655
2.80984	6.0891
2.80073	6.344
2.79168	6.603
2.78269	6.863
2.77376	7.1677
2.76488	7.591
2.75606	8.1653
2.7473	8.8808
2.73859	9.603
2.72994	10.3003
2.72134	10.8091
2.7128	11.2256
2.70431	11.5083
2.69587	11.8066
2.68748	12.0764
2.67915	12.2639
2.67087	12.4907
2.66264	12.6643
2.65446	12.6963
2.64633	12.7209
2.63825	12.7588
2.63021	12.7312
2.62223	12.7653
2.6143	12.7937
2.60641	12.7727
2.59857	12.809
2.59078	12.8337
2.58304	12.8005
2.57534	12.8208
2.56768	12.811
2.56008	12.7929
2.55251	12.7773
2.54499	12.8056
2.53752	12.7929
2.53009	12.7763
2.5227	12.7392
2.51536	12.7549
2.50806	12.7661
2.5008	12.7478
2.49358	12.7602
2.4864	12.7343
2.47927	12.6709
2.47218	12.6963
2.46512	12.6284
2.45811	12.6318
2.45114	12.6103
2.4442	12.56
2.43731	12.5796
2.43045	12.563
2.42363	12.5654
2.41685	12.562
2.41011	12.552
2.40341	12.4926
2.39674	12.4729
2.39011	12.4633
2.38352	12.4758
2.37696	12.4558
2.37044	12.4604
2.36395	12.4397
2.35751	12.4113
2.35109	12.4028
2.34471	12.3608
2.33836	12.3176
2.33205	12.268
2.32578	12.2949
2.31953	12.2749
2.31332	12.2036
2.30714	12.2236
2.301	12.2094
2.29489	12.1809
2.28881	12.1841
2.28276	12.1753
2.27675	12.164
2.27076	12.1562
2.26481	12.1797
2.25889	12.1591
2.253	12.0686
2.24714	12.0498
2.24131	12.0166
2.23551	12.0959
2.22974	12.0385
2.224	12.0598
2.21829	12.0903
2.21261	12.0205
2.20696	12.0102
2.20134	11.9687
2.19574	11.9738
2.19018	11.968
2.18464	11.8987
2.17913	11.9319
2.17365	11.9082
2.16819	11.8916
2.16277	11.9433
2.15737	11.8769
2.15199	11.8442
2.14665	11.7639
2.14133	11.7795
2.13603	11.801
2.13077	11.7658
2.12552	11.7949
2.12031	11.7102
2.11512	11.7678
2.10995	11.7033
2.10481	11.6758
2.0997	11.6552
2.09461	11.7173
2.08954	11.6897
2.0845	11.6487
2.07948	11.6025
