Name: Kyanite Al2SiO5
Type: Mineral
Class: Silicates
Subclass: Nesosilicates (Isolated Tetrahrdra); (Al2SiO5 Group)
Particle Size: Solid (100 crystal face)
Sample No.: kyanite.1
Owner: JHU
Wavelength Range: IR
Origin: Brazil (?) via the Smithsonian (sample no. NMNH 139740)
Description: The sample consisted of two blue crystals, each about 1.5
Measurement: Bidirectional reflectance
X Units: Wavelength (micrometers)
Y Units: Reflectance (percent)
wavelength	value
25.0442	24.4902
24.3388	23.6176
23.6719	26.7519
23.0407	32.0863
22.4422	32.8251
21.8741	28.9052
21.334	34.7492
20.8199	28.4845
20.33	29.8801
19.8627	37.3456
19.4163	43.87
18.9896	45.8409
18.5812	42.3939
18.19	41.2011
17.815	24.5317
17.4551	34.1386
17.1094	31.9482
16.7772	34.0614
16.4576	40.1937
16.15	49.225
15.8537	45.3326
15.568	54.0033
15.2925	43.9901
15.0265	39.3751
14.7697	47.2977
14.5214	52.985
14.2814	53.0057
14.0492	47.9327
13.8244	38.5277
13.6067	39.2699
13.3957	29.453
13.1912	25.6804
12.9929	27.4596
12.8004	27.8639
12.6135	26.2009
12.432	22.2546
12.2557	20.3193
12.0843	19.8627
11.9176	19.8132
11.7555	20.3068
11.5977	19.5358
11.444	21.0102
11.2944	22.3015
11.1487	24.873
11.0067	23.9853
10.8682	23.2895
10.7332	25.7079
10.6015	29.2926
10.473	29.8945
10.3476	28.684
10.2251	31.6589
10.1056	31.0195
9.98873	28.2258
9.87458	27.4062
9.763	23.0937
9.65392	25.2585
9.54724	33.422
9.44291	31.9242
9.34082	30.2609
9.24091	30.0051
9.14312	25.8212
9.04739	24.726
8.95363	23.0937
8.8618	22.6264
8.77183	22.1672
8.68368	21.2031
8.59727	20.4877
8.51257	19.3049
8.42951	18.2143
8.34807	17.4848
8.26819	17.3798
8.18981	18.0515
8.11292	18.2443
8.03745	17.8452
7.96337	17.6196
7.89064	17.6228
7.81924	17.2558
7.74911	17.2251
7.68023	17.3078
7.61256	17.642
7.54608	18.0805
7.48074	18.2793
7.41653	18.4663
7.35341	18.4934
7.29136	18.2255
7.23034	18.2253
7.17033	17.7851
7.11132	18.6757
7.05327	19.2731
6.99616	19.1325
6.93996	18.7136
6.88467	18.0102
6.83024	17.9807
6.77667	17.9108
6.72393	17.6252
6.67201	19.1101
6.62089	19.9355
6.57054	20.0581
6.52095	20.2797
6.4721	20.5251
6.42398	20.5473
6.37657	20.7348
6.32986	20.8998
6.28382	20.9274
6.23845	20.8791
6.19373	20.7954
6.14965	20.7136
6.10619	20.7072
6.06334	20.833
6.02109	20.8537
5.97942	20.8759
5.93832	20.3271
5.89778	20.4628
5.8578	20.7917
5.81835	21.3679
5.77943	20.9333
5.74103	17.3437
5.70314	14.4687
5.66574	17.4111
5.62883	18.7563
5.5924	19.4177
5.55644	19.81
5.52093	20.2165
5.48588	20.489
5.45127	20.801
5.41709	20.9667
5.38334	21.1542
5.35	21.1198
5.31708	21.2409
5.28456	21.3066
5.25243	21.4079
5.2207	21.5107
5.18934	21.5988
5.15836	21.623
5.12775	21.5693
5.09749	21.5568
5.0676	21.5414
5.03805	21.4958
5.00884	21.4824
4.97998	21.4877
4.95144	21.4958
4.92322	21.4755
4.89533	21.4999
4.86775	21.5644
4.84048	21.6157
4.81351	21.7375
4.78684	21.9216
4.76047	22.1767
4.73439	22.3923
4.70859	22.5436
4.68306	22.6572
4.65782	22.7812
4.63284	22.9394
4.60814	23.0349
4.58369	23.1369
4.5595	23.1765
4.53557	23.2319
4.51188	23.2621
4.48845	23.2641
4.46525	23.3359
4.44229	23.3278
4.41957	23.3305
4.39708	23.343
4.37481	23.3588
4.35277	23.3954
4.33096	23.4096
4.30935	23.434
4.28797	23.6118
4.26679	23.6381
4.24583	23.8056
4.22506	23.809
4.2045	23.3598
4.18414	23.1301
4.16398	23.1137
4.14401	23.1757
4.12423	23.2309
4.10464	23.3076
4.08523	23.362
4.066	23.3659
4.04696	23.3637
4.02809	23.4067
4.0094	23.426
3.99088	23.446
3.97253	23.5026
3.95435	23.4919
3.93634	23.5139
3.91848	23.486
3.90079	23.4892
3.88326	23.4631
3.86589	23.4565
3.84867	23.4714
3.8316	23.5285
3.81468	23.5453
3.79791	23.5544
3.78129	23.55
3.76482	23.5119
3.74848	23.5119
3.73229	23.486
3.71624	23.4653
3.70032	23.4186
3.68454	23.3596
3.6689	23.2792
3.65338	23.1618
3.638	23.1142
3.62275	23.0671
3.60762	22.9789
3.59262	22.9531
3.57775	22.9614
3.56299	22.7707
3.54836	22.5163
3.53385	22.1777
3.51945	21.6538
3.50517	21.3757
3.49101	21.1801
3.47696	20.5959
3.46303	20.4125
3.4492	19.8276
3.43549	19.4997
3.42188	19.2778
3.40838	18.9399
3.39499	18.7255
3.38171	18.4965
3.36852	18.6259
3.35544	18.3422
3.34246	18.0661
3.32958	18.3247
3.3168	19.2958
3.30411	20.2936
3.29153	21.1345
3.27903	21.7089
3.26664	21.9897
3.25433	22.1462
3.24212	22.1823
3.23	22.2817
3.21797	22.33
3.20603	22.352
3.19418	22.3867
3.18241	22.4033
3.17074	22.3823
3.15914	22.3664
3.14763	22.3593
3.13621	22.3686
3.12487	22.374
3.11361	22.3452
3.10243	22.329
3.09133	22.2856
3.0803	22.2575
3.06936	22.1345
3.0585	22.0927
3.04771	22.0598
3.037	22.1298
3.02636	22.196
3.0158	22.1865
3.00531	22.1911
2.99489	22.2202
2.98454	22.1972
2.97427	22.184
2.96407	22.1347
2.95393	21.7885
2.94387	21.997
2.93387	21.7895
2.92394	21.5888
2.91408	21.381
2.90429	21.3071
2.89456	21.4301
2.88489	21.5869
2.87529	21.7719
2.86576	21.8403
2.85628	21.7617
2.84687	21.8945
2.83752	21.8007
2.82823	21.7026
2.81901	21.5944
2.80984	21.5834
2.80073	21.7021
2.79168	21.7636
2.78269	21.6464
2.77376	21.6625
2.76488	21.3486
2.75606	21.1259
2.7473	21.4038
2.73859	21.6201
2.72994	21.7861
2.72134	21.7619
2.7128	22.0986
2.70431	22.2487
2.69587	22.4238
2.68748	22.6838
2.67915	22.592
2.67087	22.5908
2.66264	22.7932
2.65446	22.7553
2.64633	22.6772
2.63825	22.7453
2.63021	22.6415
2.62223	22.728
2.6143	22.7685
2.60641	22.6708
2.59857	22.5996
2.59078	22.7275
2.58304	22.6572
2.57534	22.6884
2.56768	22.6799
2.56008	22.5959
2.55251	22.4599
2.54499	22.4982
2.53752	22.4728
2.53009	22.5353
2.5227	22.4916
2.51536	22.466
2.50806	22.4487
2.5008	22.3818
2.49358	22.3557
2.4864	22.2817
2.47927	22.2895
2.47218	22.2465
2.46512	22.2758
2.45811	22.2109
2.45114	22.1535
2.4442	22.0976
2.43731	22.05
2.43045	22.1154
2.42363	22.1132
2.41685	22.122
2.41011	22.1127
2.40341	22.0405
2.39674	22.1115
2.39011	22.1455
2.38352	22.1682
2.37696	22.1701
2.37044	22.1538
2.36395	22.2101
2.35751	22.217
2.35109	22.1574
2.34471	22.2473
2.33836	22.2543
2.33205	22.2441
2.32578	22.2951
2.31953	22.3478
2.31332	22.175
2.30714	22.0693
2.301	21.9562
2.29489	21.9531
2.28881	22.0168
2.28276	22.1132
2.27675	22.0927
2.27076	22.1249
2.26481	22.0363
2.25889	21.8723
2.253	22.0268
2.24714	22.1762
2.24131	22.2939
2.23551	22.3276
2.22974	22.5502
2.224	22.6406
2.21829	22.77
2.21261	22.8085
2.20696	22.8828
2.20134	22.8515
2.19574	22.8393
2.19018	22.8979
2.18464	23.0097
2.17913	22.9687
2.17365	22.9243
2.16819	22.9531
2.16277	22.9887
2.15737	22.9199
2.15199	22.975
2.14665	23.0585
2.14133	22.9384
2.13603	22.9863
2.13077	23.0141
2.12552	23.0605
2.12031	23.081
2.11512	23.0693
2.10995	23.1181
2.10481	23.123
2.0997	23.1332
2.09461	23.2011
2.08954	23.145
2.0845	23.2773
2.07948	23.184
