Name: Montmorillonite (Na,Ca)0.33(Al,Mg)2Si4O10(OH)2.nH2O
Type: Mineral
Class: Silicates
Subclass: Phyllosilicates (Sheet Silicates); (SmectiteGroup)
Particle Size: 0-2 micrometers.  (Packed powder simulates coarse.)
Sample No.: montmor.2
Owner: JHU
Wavelength Range: IR
Origin: Gonzales Co., Texas via the Hunt and Salisbury Collection
Description: The sample was a white, earthy clay. The bulk sample
Measurement: Bidirectional reflectance
X Units: Wavelength (micrometers)
Y Units: Reflectance (percent)
wavelength	value
25.0442	9.9785
24.3388	10.4028
23.6719	10.9133
23.0407	11.0317
22.4422	11.4282
21.8741	12.1062
21.334	13.2754
20.8199	13.5273
20.33	11.3886
19.8627	10.342
19.4163	11.4404
18.9896	12.8095
18.5812	13.0608
18.19	12.5486
17.815	12.1233
17.4551	11.3928
17.1094	10.5503
16.7772	9.3991
16.4576	7.7473
16.15	6.5356
15.8537	5.6391
15.568	4.1179
15.2925	3.5471
15.0265	3.5393
14.7697	3.6741
14.5214	3.8537
14.2814	3.957
14.0492	4.168
13.8244	4.3767
13.6067	4.5803
13.3957	4.8276
13.1912	5.0598
12.9929	5.2241
12.8004	5.291
12.6135	5.3118
12.432	5.4468
12.2557	5.5705
12.0843	5.6147
11.9176	5.5647
11.7555	5.5361
11.5977	5.6929
11.444	5.8667
11.2944	6.0085
11.1487	6.2021
11.0067	6.3442
10.8682	6.2527
10.7332	6.207
10.6015	6.4109
10.473	6.7243
10.3476	7.1184
10.2251	7.6045
10.1056	8.1264
9.98873	8.7575
9.87458	9.4844
9.763	10.3589
9.65392	11.5232
9.54724	12.9814
9.44291	14.6704
9.34082	15.7866
9.24091	15.3857
9.14312	14.0288
9.04739	12.9008
8.95363	12.7334
8.8618	12.9494
8.77183	13.0915
8.68368	13.021
8.59727	12.7429
8.51257	12.2773
8.42951	11.4885
8.34807	9.4819
8.26819	6.0388
8.18981	2.9399
8.11292	1.2473
8.03745	0.9529
7.96337	1.2187
7.89064	1.6023
7.81924	2.0134
7.74911	2.4228
7.68023	2.8113
7.61256	3.1677
7.54608	3.5046
7.48074	3.8179
7.41653	4.0952
7.35341	4.3674
7.29136	4.5984
7.23034	4.8345
7.17033	5.0454
7.11132	5.2265
7.05327	5.3479
6.99616	5.4809
6.93996	5.6699
6.88467	5.8882
6.83024	6.0618
6.77667	6.1965
6.72393	6.3147
6.67201	6.4773
6.62089	6.5847
6.57054	6.6318
6.52095	6.6597
6.4721	6.6113
6.42398	6.469
6.37657	6.2163
6.32986	5.7595
6.28382	4.9988
6.23845	4.1716
6.19373	3.6016
6.14965	3.3198
6.10619	3.2082
6.06334	3.26
6.02109	3.5588
5.97942	3.989
5.93832	4.594
5.89778	5.2463
5.8578	5.7861
5.81835	6.1909
5.77943	6.563
5.74103	6.9282
5.70314	7.1809
5.66574	7.334
5.62883	7.3823
5.5924	7.3381
5.55644	7.2065
5.52093	7.0478
5.48588	6.9436
5.45127	6.9189
5.41709	7.0129
5.38334	7.1916
5.35	7.417
5.31708	7.6489
5.28456	7.8415
5.25243	8.0032
5.2207	8.1282
5.18934	8.2536
5.15836	8.3823
5.12775	8.5381
5.09749	8.751
5.0676	9.0022
5.03805	9.2954
5.00884	9.6137
4.97998	9.9082
4.95144	10.1792
4.92322	10.4114
4.89533	10.6015
4.86775	10.7551
4.84048	10.8645
4.81351	10.9768
4.78684	11.0952
4.76047	11.2019
4.73439	11.3039
4.70859	11.394
4.68306	11.4709
4.65782	11.5427
4.63284	11.6162
4.60814	11.6875
4.58369	11.7256
4.5595	11.7583
4.53557	11.7802
4.51188	11.8037
4.48845	11.8215
4.46525	11.8554
4.44229	11.8623
4.41957	11.8733
4.39708	11.883
4.37481	11.8813
4.35277	11.8818
4.33096	11.8867
4.30935	11.9021
4.28797	11.9326
4.26679	11.9846
4.24583	12.0337
4.22506	12.0857
4.2045	12.1401
4.18414	12.1958
4.16398	12.2751
4.14401	12.3315
4.12423	12.4184
4.10464	12.5105
4.08523	12.6259
4.066	12.7614
4.04696	12.8999
4.02809	13.0295
4.0094	13.146
3.99088	13.2285
3.97253	13.2707
3.95435	13.2776
3.93634	13.2658
3.91848	13.2219
3.90079	13.1853
3.88326	13.1296
3.86589	13.0764
3.84867	12.9939
3.8316	12.9179
3.81468	12.8244
3.79791	12.7163
3.78129	12.6035
3.76482	12.4636
3.74848	12.3171
3.73229	12.1665
3.71624	12.0224
3.70032	11.8742
3.68454	11.7351
3.6689	11.6157
3.65338	11.4817
3.638	11.3435
3.62275	11.2014
3.60762	11.0512
3.59262	10.8916
3.57775	10.7217
3.56299	10.539
3.54836	10.3481
3.53385	10.1501
3.51945	9.9365
3.50517	9.7322
3.49101	9.5674
3.47696	9.3738
3.46303	9.1592
3.4492	8.9328
3.43549	8.7104
3.42188	8.4814
3.40838	8.29
3.39499	8.0705
3.38171	7.8728
3.36852	7.6865
3.35544	7.4748
3.34246	7.2659
3.32958	7.0513
3.3168	6.8479
3.30411	6.6533
3.29153	6.4455
3.27903	6.25
3.26664	6.052
3.25433	5.8481
3.24212	5.6733
3.23	5.4966
3.21797	5.3147
3.20603	5.1514
3.19418	4.9917
3.18241	4.8337
3.17074	4.6973
3.15914	4.5395
3.14763	4.4128
3.13621	4.2937
3.12487	4.1675
3.11361	4.0793
3.10243	3.9807
3.09133	3.9143
3.0803	3.8559
3.06936	3.824
3.0585	3.7949
3.04771	3.7881
3.037	3.7622
3.02636	3.697
3.0158	3.6313
3.00531	3.5432
2.99489	3.4604
2.98454	3.3901
2.97427	3.3235
2.96407	3.2497
2.95393	3.1833
2.94387	3.1145
2.93387	3.0581
2.92394	3.0073
2.91408	2.968
2.90429	2.9194
2.89456	2.8684
2.88489	2.8144
2.87529	2.769
2.86576	2.7156
2.85628	2.6955
2.84687	2.6326
2.83752	2.5867
2.82823	2.5373
2.81901	2.51
2.80984	2.4836
2.80073	2.4067
2.79168	2.3169
2.78269	2.1977
2.77376	2.094
2.76488	2.0071
2.75606	1.9434
2.7473	1.9612
2.73859	2.0164
2.72994	2.0945
2.72134	2.3245
2.7128	2.8296
2.70431	3.6387
2.69587	4.906
2.68748	6.53
2.67915	7.8721
2.67087	8.7776
2.66264	9.5075
2.65446	9.9695
2.64633	10.3159
2.63825	10.5937
2.63021	10.8169
2.62223	10.9897
2.6143	11.1401
2.60641	11.2695
2.59857	11.3886
2.59078	11.5266
2.58304	11.6389
2.57534	11.73
2.56768	11.8183
2.56008	11.8835
2.55251	12.0068
2.54499	12.0664
2.53752	12.1399
2.53009	12.2251
2.5227	12.3144
2.51536	12.3779
2.50806	12.4926
2.5008	12.5803
2.49358	12.6645
2.4864	12.6845
2.47927	12.728
2.47218	12.7021
2.46512	12.6811
2.45811	12.6594
2.45114	12.6997
2.4442	12.6684
2.43731	12.7798
2.43045	12.8344
2.42363	12.9519
2.41685	13.0417
2.41011	13.1091
2.40341	13.1587
2.39674	13.2451
2.39011	13.3574
2.38352	13.4463
2.37696	13.581
2.37044	13.6635
2.36395	13.812
2.35751	13.9311
2.35109	14.0361
2.34471	14.1611
2.33836	14.2773
2.33205	14.3803
2.32578	14.4834
2.31953	14.6562
2.31332	14.8764
2.30714	15.0903
2.301	15.2868
2.29489	15.4653
2.28881	15.6425
2.28276	15.7212
2.27675	15.7934
2.27076	15.7988
2.26481	15.6547
2.25889	15.4926
2.253	15.1665
2.24714	14.8928
2.24131	14.6132
2.23551	14.3586
2.22974	14.0656
2.224	13.8176
2.21829	13.5341
2.21261	13.416
2.20696	13.7551
2.20134	14.333
2.19574	15.008
2.19018	15.5239
2.18464	15.9951
2.17913	16.3432
2.17365	16.5659
2.16819	16.8225
2.16277	16.9155
2.15737	17.008
2.15199	16.9875
2.14665	16.9787
2.14133	17.0598
2.13603	17.0717
2.13077	17.0576
2.12552	17.1074
2.12031	17.0864
2.11512	17.1096
2.10995	17.1713
2.10481	17.125
2.0997	17.1474
2.09461	17.2041
2.08954	17.2341
2.0845	17.2202
2.07948	17.2885
