Name: Heulandite (Na,Ca)2-3Al3(Al,Si)2Si13O36.12H2O
Type: Mineral
Class: Silicates
Subclass: Tectosilicates (Zeolite Group)
Particle Size: Solid (cleavage face)
Sample No.: heulan.2
Owner: JHU
Wavelength Range: IR
Origin: Gobel, Oregon via Joe Taggart, USGS, Denver, Colorado.
Description: The sample is composed of 1 cm diameter, pearly,
Measurement: Bidirectional reflectance
X Units: Wavelength (micrometers)
Y Units: Reflectance (percent)
wavelength	value
25.0442	20.9826
24.3388	21.5747
23.6719	21.236
23.0407	23.0663
22.4422	28.0014
21.8741	33.1498
21.334	38.776
20.8199	38.7921
20.33	30.5553
19.8627	21.5004
19.4163	16.7924
18.9896	15.6435
18.5812	11.4424
18.19	8.9057
17.815	8.7085
17.4551	9.0361
17.1094	9.4389
16.7772	9.8589
16.4576	9.7461
16.15	8.9355
15.8537	8.6257
15.568	8.7068
15.2925	8.9626
15.0265	9.2947
14.7697	9.4668
14.5214	9.6767
14.2814	10.0681
14.0492	10.3115
13.8244	10.1484
13.6067	9.6682
13.3957	9.1762
13.1912	9.0075
12.9929	9.0427
12.8004	9.1098
12.6135	9.1518
12.432	9.4531
12.2557	10.2307
12.0843	11.0486
11.9176	11.7358
11.7555	12.4279
11.5977	13.1318
11.444	13.8103
11.2944	14.4553
11.1487	14.9953
11.0067	15.5749
10.8682	16.237
10.7332	17.1965
10.6015	18.5571
10.473	20.1801
10.3476	22.0529
10.2251	24.0339
10.1056	26.0724
9.98873	28.2184
9.87458	29.9303
9.763	30.7883
9.65392	31.6088
9.54724	33.175
9.44291	35.4853
9.34082	37.7187
9.24091	37.1725
9.14312	34.9377
9.04739	32.7565
8.95363	30.893
8.8618	29.446
8.77183	28.256
8.68368	26.9035
8.59727	25.5051
8.51257	24.7211
8.42951	24.2453
8.34807	22.822
8.26819	20.2199
8.18981	16.7622
8.11292	11.4968
8.03745	6.5044
7.96337	3.1392
7.89064	1.645
7.81924	1.7869
7.74911	2.3584
7.68023	2.9224
7.61256	3.4407
7.54608	3.9119
7.48074	4.3266
7.41653	4.7126
7.35341	5.0686
7.29136	5.3855
7.23034	5.6926
7.17033	5.958
7.11132	6.2226
7.05327	6.4221
6.99616	6.6404
6.93996	6.8052
6.88467	6.9414
6.83024	7.0969
6.77667	7.2751
6.72393	7.4978
6.67201	7.594
6.62089	7.6655
6.57054	7.7453
6.52095	7.8467
6.4721	7.8764
6.42398	7.8655
6.37657	7.9817
6.32986	7.9475
6.28382	7.8843
6.23845	7.7356
6.19373	7.4263
6.14965	6.9316
6.10619	6.302
6.06334	6.0017
6.02109	6.24
5.97942	6.5671
5.93832	6.9863
5.89778	7.4807
5.8578	8.0705
5.81835	8.5266
5.77943	8.9573
5.74103	9.2693
5.70314	9.5285
5.66574	9.7461
5.62883	9.9209
5.5924	10.0971
5.55644	10.2688
5.52093	10.4726
5.48588	10.6828
5.45127	10.9265
5.41709	11.1404
5.38334	11.383
5.35	11.5249
5.31708	11.6848
5.28456	11.7829
5.25243	11.8979
5.2207	12.0046
5.18934	12.1523
5.15836	12.3122
5.12775	12.4985
5.09749	12.6853
5.0676	12.8635
5.03805	13.0249
5.00884	13.1635
4.97998	13.2749
4.95144	13.3535
4.92322	13.4297
4.89533	13.4799
4.86775	13.519
4.84048	13.5517
4.81351	13.5927
4.78684	13.6338
4.76047	13.6694
4.73439	13.6958
4.70859	13.7107
4.68306	13.7133
4.65782	13.7129
4.63284	13.7202
4.60814	13.7353
4.58369	13.7588
4.5595	13.7942
4.53557	13.8525
4.51188	13.9255
4.48845	14.0197
4.46525	14.1401
4.44229	14.2966
4.41957	14.4836
4.39708	14.685
4.37481	14.8991
4.35277	15.1237
4.33096	15.354
4.30935	15.5944
4.28797	15.8413
4.26679	16.0317
4.24583	16.2595
4.22506	16.4892
4.2045	16.6106
4.18414	16.7802
4.16398	16.9577
4.14401	17.1181
4.12423	17.2793
4.10464	17.447
4.08523	17.6013
4.066	17.7307
4.04696	17.8391
4.02809	17.9375
4.0094	18.029
3.99088	18.114
3.97253	18.2004
3.95435	18.2922
3.93634	18.3747
3.91848	18.4301
3.90079	18.467
3.88326	18.4877
3.86589	18.4863
3.84867	18.4699
3.8316	18.4462
3.81468	18.4126
3.79791	18.361
3.78129	18.3005
3.76482	18.2282
3.74848	18.1464
3.73229	18.0559
3.71624	17.9565
3.70032	17.8471
3.68454	17.7294
3.6689	17.5998
3.65338	17.4558
3.638	17.3015
3.62275	17.1228
3.60762	16.926
3.59262	16.7085
3.57775	16.4804
3.56299	16.2443
3.54836	15.9924
3.53385	15.7202
3.51945	15.3942
3.50517	15.0651
3.49101	14.8515
3.47696	14.5937
3.46303	14.3032
3.4492	14.0019
3.43549	13.6916
3.42188	13.3908
3.40838	13.1272
3.39499	12.8889
3.38171	12.635
3.36852	12.4228
3.35544	12.2082
3.34246	11.9555
3.32958	11.7302
3.3168	11.53
3.30411	11.3144
3.29153	11.1191
3.27903	10.9314
3.26664	10.7495
3.25433	10.5805
3.24212	10.425
3.23	10.282
3.21797	10.1513
3.20603	10.0302
3.19418	9.9189
3.18241	9.8125
3.17074	9.7124
3.15914	9.6155
3.14763	9.5222
3.13621	9.4299
3.12487	9.3449
3.11361	9.2705
3.10243	9.2099
3.09133	9.1684
3.0803	9.1357
3.06936	9.112
3.0585	9.0866
3.04771	9.0586
3.037	9.0239
3.02636	8.9905
3.0158	8.9533
3.00531	8.914
2.99489	8.8667
2.98454	8.8164
2.97427	8.7641
2.96407	8.7153
2.95393	8.6689
2.94387	8.6225
2.93387	8.5837
2.92394	8.5481
2.91408	8.52
2.90429	8.4912
2.89456	8.4721
2.88489	8.4516
2.87529	8.4321
2.86576	8.4138
2.85628	8.394
2.84687	8.3762
2.83752	8.355
2.82823	8.3501
2.81901	8.3418
2.80984	8.3554
2.80073	8.3533
2.79168	8.3613
2.78269	8.3376
2.77376	8.2993
2.76488	8.2358
2.75606	8.1794
2.7473	8.2805
2.73859	8.4375
2.72994	9.018
2.72134	9.6902
2.7128	10.592
2.70431	11.4453
2.69587	12.1059
2.68748	12.7636
2.67915	13.2131
2.67087	13.5588
2.66264	14.0334
2.65446	14.4336
2.64633	14.7265
2.63825	14.9765
2.63021	15.0344
2.62223	15.2224
2.6143	15.3564
2.60641	15.3664
2.59857	15.4472
2.59078	15.4924
2.58304	15.5339
2.57534	15.581
2.56768	15.6137
2.56008	15.6201
2.55251	15.6816
2.54499	15.7209
2.53752	15.7785
2.53009	15.8474
2.5227	15.9314
2.51536	16.0241
2.50806	16.135
2.5008	16.2563
2.49358	16.3801
2.4864	16.5056
2.47927	16.6264
2.47218	16.7385
2.46512	16.8542
2.45811	16.9755
2.45114	17.101
2.4442	17.2343
2.43731	17.3776
2.43045	17.5441
2.42363	17.7226
2.41685	17.9187
2.41011	18.1286
2.40341	18.3537
2.39674	18.5827
2.39011	18.8205
2.38352	19.06
2.37696	19.3076
2.37044	19.5537
2.36395	19.8049
2.35751	20.0458
2.35109	20.27
2.34471	20.5156
2.33836	20.7311
2.33205	20.9265
2.32578	21.1059
2.31953	21.2607
2.31332	21.3769
2.30714	21.5209
2.301	21.6542
2.29489	21.7778
2.28881	21.8862
2.28276	21.9814
2.27675	22.0688
2.27076	22.1513
2.26481	22.2289
2.25889	22.2946
2.253	22.3547
2.24714	22.4157
2.24131	22.4648
2.23551	22.4929
2.22974	22.5202
2.224	22.5378
2.21829	22.5458
2.21261	22.5505
2.20696	22.5512
2.20134	22.5488
2.19574	22.5505
2.19018	22.5392
2.18464	22.5261
2.17913	22.5126
2.17365	22.4948
2.16819	22.478
2.16277	22.4599
2.15737	22.4416
2.15199	22.4133
2.14665	22.3896
2.14133	22.3593
2.13603	22.3298
2.13077	22.3046
2.12552	22.2712
2.12031	22.2551
2.11512	22.226
2.10995	22.1938
2.10481	22.1652
2.0997	22.1393
2.09461	22.1044
2.08954	22.0729
2.0845	22.05
2.07948	22.0205
