Name: Vermiculite (Mg,Fe+2,Al)3(Al,Si)4O10(OH)2.4H2O
Type: Mineral
Class: Silicates
Subclass: Phyllosilicates (Sheet Silicates); (Vermiculite Group)
Particle Size: Fine  (0-2 Micrometers)
Sample No.: vermicul.1
Owner: JHU
Wavelength Range: IR
Origin: Llano, Texas via Norma Vergo #VTx-1 (CMS) (purchased from
Description: White, earthy clay.  XRD analysis indicates pure vermiculite for the
Measurement: Bidirectional reflectance
X Units: Wavelength (micrometers)
Y Units: Reflectance (percent)
wavelength	value
25.0442	1.7876
24.3388	1.8684
23.6719	1.844
23.0407	1.9314
22.4422	2.1243
21.8741	2.2239
21.334	2.4868
20.8199	2.5478
20.33	2.3962
19.8627	2.4341
19.4163	2.5503
18.9896	2.4163
18.5812	2.1509
18.19	1.6848
17.815	1.1501
17.4551	0.8508
17.1094	0.7483
16.7772	0.7278
16.4576	0.7693
16.15	0.844
15.8537	0.8713
15.568	0.8874
15.2925	0.9485
15.0265	0.9524
14.7697	0.8784
14.5214	0.7976
14.2814	0.7031
14.0492	0.6965
13.8244	0.6792
13.6067	0.7046
13.3957	0.7056
13.1912	0.7222
12.9929	0.7781
12.8004	0.8401
12.6135	0.9228
12.432	0.9258
12.2557	0.905
12.0843	0.9006
11.9176	0.9832
11.7555	1.1226
11.5977	1.1934
11.444	1.2097
11.2944	1.1445
11.1487	1.0664
11.0067	1.0205
10.8682	0.9971
10.7332	0.9954
10.6015	1.0461
10.473	1.1113
10.3476	1.2141
10.2251	1.3433
10.1056	1.4739
9.98873	1.6135
9.87458	1.7229
9.763	1.6804
9.65392	1.6121
9.54724	1.5549
9.44291	1.5181
9.34082	1.4661
9.24091	1.4468
9.14312	1.4919
9.04739	1.6062
8.95363	1.6218
8.8618	1.397
8.77183	1.0117
8.68368	0.7827
8.59727	0.7654
8.51257	0.8821
8.42951	1.05
8.34807	1.2288
8.26819	1.404
8.18981	1.5957
8.11292	1.7478
8.03745	1.9011
7.96337	2.0334
7.89064	2.1575
7.81924	2.2983
7.74911	2.4197
7.68023	2.5364
7.61256	2.645
7.54608	2.7302
7.48074	2.8093
7.41653	2.8747
7.35341	2.9338
7.29136	2.9434
7.23034	2.9204
7.17033	2.8816
7.11132	2.8249
7.05327	2.8184
6.99616	2.7275
6.93996	2.6079
6.88467	2.5283
6.83024	2.5417
6.77667	2.6343
6.72393	2.7375
6.67201	2.8567
6.62089	2.9746
6.57054	3.0828
6.52095	3.1223
6.4721	3.0935
6.42398	2.9824
6.37657	2.7851
6.32986	2.5054
6.28382	2.136
6.23845	1.7505
6.19373	1.458
6.14965	1.2434
6.10619	1.116
6.06334	1.0457
6.02109	1.0142
5.97942	1.071
5.93832	1.3096
5.89778	1.7854
5.8578	2.3728
5.81835	2.9724
5.77943	3.4971
5.74103	3.9258
5.70314	4.2724
5.66574	4.55
5.62883	4.7717
5.5924	4.9328
5.55644	5.0408
5.52093	5.1304
5.48588	5.2676
5.45127	5.4419
5.41709	5.5757
5.38334	5.6951
5.35	5.8108
5.31708	5.9507
5.28456	6.0547
5.25243	6.1645
5.2207	6.2441
5.18934	6.2986
5.15836	6.3515
5.12775	6.3835
5.09749	6.4136
5.0676	6.4258
5.03805	6.4414
5.00884	6.4521
4.97998	6.4382
4.95144	6.4309
4.92322	6.4265
4.89533	6.4385
4.86775	6.4685
4.84048	6.4685
4.81351	6.4722
4.78684	6.4783
4.76047	6.478
4.73439	6.4846
4.70859	6.4929
4.68306	6.4802
4.65782	6.4736
4.63284	6.4555
4.60814	6.4365
4.58369	6.4123
4.5595	6.366
4.53557	6.3181
4.51188	6.2624
4.48845	6.2156
4.46525	6.1604
4.44229	6.0986
4.41957	6.0471
4.39708	6.0061
4.37481	5.9834
4.35277	5.9629
4.33096	5.9487
4.30935	5.9343
4.28797	5.9431
4.26679	5.9722
4.24583	5.9734
4.22506	6.001
4.2045	6.0307
4.18414	6.0818
4.16398	6.133
4.14401	6.1848
4.12423	6.2541
4.10464	6.3198
4.08523	6.3879
4.066	6.449
4.04696	6.5088
4.02809	6.5547
4.0094	6.5769
3.99088	6.5683
3.97253	6.5342
3.95435	6.53
3.93634	6.5525
3.91848	6.5664
3.90079	6.5928
3.88326	6.5805
3.86589	6.5334
3.84867	6.48
3.8316	6.3952
3.81468	6.3074
3.79791	6.2009
3.78129	6.1091
3.76482	6.0115
3.74848	5.8992
3.73229	5.7698
3.71624	5.625
3.70032	5.4802
3.68454	5.3389
3.6689	5.1868
3.65338	5.041
3.638	4.8913
3.62275	4.7351
3.60762	4.5793
3.59262	4.4106
3.57775	4.2468
3.56299	4.0732
3.54836	3.9006
3.53385	3.7319
3.51945	3.5405
3.50517	3.3581
3.49101	3.2278
3.47696	3.074
3.46303	2.9353
3.4492	2.7915
3.43549	2.6379
3.42188	2.5078
3.40838	2.4016
3.39499	2.2898
3.38171	2.1956
3.36852	2.0996
3.35544	2.0017
3.34246	1.9123
3.32958	1.8193
3.3168	1.7302
3.30411	1.6599
3.29153	1.5752
3.27903	1.5293
3.26664	1.4619
3.25433	1.3972
3.24212	1.3362
3.23	1.2844
3.21797	1.2468
3.20603	1.2036
3.19418	1.1624
3.18241	1.137
3.17074	1.0842
3.15914	1.0645
3.14763	1.0388
3.13621	1.0107
3.12487	0.9949
3.11361	0.969
3.10243	0.9502
3.09133	0.9412
3.0803	0.9373
3.06936	0.9246
3.0585	0.9104
3.04771	0.8977
3.037	0.8911
3.02636	0.8848
3.0158	0.8713
3.00531	0.8601
2.99489	0.8606
2.98454	0.8477
2.97427	0.8257
2.96407	0.8303
2.95393	0.8208
2.94387	0.8181
2.93387	0.8191
2.92394	0.8184
2.91408	0.8186
2.90429	0.8159
2.89456	0.8037
2.88489	0.8069
2.87529	0.7959
2.86576	0.8135
2.85628	0.8164
2.84687	0.822
2.83752	0.8347
2.82823	0.8462
2.81901	0.8713
2.80984	0.8603
2.80073	0.8955
2.79168	0.9241
2.78269	0.9661
2.77376	1.0374
2.76488	1.1443
2.75606	1.2512
2.7473	1.4192
2.73859	1.6584
2.72994	1.8862
2.72134	1.6328
2.7128	1.8611
2.70431	3.2058
2.69587	4.9416
2.68748	6.053
2.67915	6.8623
2.67087	7.4617
2.66264	7.8674
2.65446	8.1452
2.64633	8.3747
2.63825	8.583
2.63021	8.7339
2.62223	8.906
2.6143	9.0244
2.60641	9.094
2.59857	9.1892
2.59078	9.2383
2.58304	9.3076
2.57534	9.3803
2.56768	9.4197
2.56008	9.445
2.55251	9.487
2.54499	9.5559
2.53752	9.6098
2.53009	9.6091
2.5227	9.6474
2.51536	9.686
2.50806	9.7539
2.5008	9.8144
2.49358	9.8806
2.4864	9.9504
2.47927	10.0559
2.47218	10.1264
2.46512	10.185
2.45811	10.3
2.45114	10.4616
2.4442	10.5344
2.43731	10.646
2.43045	10.7231
2.42363	10.7295
2.41685	10.8134
2.41011	10.7961
2.40341	10.7654
2.39674	10.6911
2.39011	10.7356
2.38352	10.9043
2.37696	11.1281
2.37044	11.3322
2.36395	11.4538
2.35751	11.5168
2.35109	11.5652
2.34471	11.5183
2.33836	11.3029
2.33205	11.0962
2.32578	10.9477
2.31953	11.0195
2.31332	11.1994
2.30714	11.4287
2.301	11.5395
2.29489	11.6508
2.28881	11.9011
2.28276	12.4111
2.27675	12.7929
2.27076	12.9939
2.26481	13.122
2.25889	13.1218
2.253	12.9655
2.24714	12.6779
2.24131	12.8364
2.23551	13.2776
2.22974	13.5117
2.224	13.5422
2.21829	13.623
2.21261	13.6298
2.20696	13.5962
2.20134	13.6435
2.19574	13.6333
2.19018	13.6894
2.18464	13.6257
2.17913	13.6543
2.17365	13.6504
2.16819	13.6047
2.16277	13.6167
2.15737	13.6518
2.15199	13.6008
2.14665	13.5141
2.14133	13.486
2.13603	13.5066
2.13077	13.4616
2.12552	13.4467
2.12031	13.426
2.11512	13.4013
2.10995	13.373
2.10481	13.3515
2.0997	13.3103
2.09461	13.3203
2.08954	13.3374
2.0845	13.3266
2.07948	13.2448
