Name: Topaz Al2SiO4(F,OH)2
Type: Mineral
Class: Silicates
Subclass: Nesosilicates (Isolated tetrahedra)
Particle Size: Fine  (Less than 2 Micrometers)
Sample No.: topaz.2
Owner: JHU
Wavelength Range: IR
Origin: Ouro Preto, Brazil via Don Hoover, USGS
Description: The sample consisted of several orange-colored, rounded
Measurement: Transmission
X Units: Wavelength (micrometers)
Y Units: Transmittance (percent)
wavelength	value
25.0442	56.2186
24.3388	62.7577
23.6719	58.4881
23.0407	49.369
22.4422	26.0546
21.8741	22.791
21.334	27.6796
20.8199	28.789
20.33	36.3612
19.8627	35.8554
19.4163	28.5986
18.9896	30.3163
18.5812	46.7889
18.19	56.2704
17.815	50.329
17.4551	58.1307
17.1094	57.5565
16.7772	46.3925
16.4576	26.3603
16.15	16.1523
15.8537	19.8095
15.568	26.9472
15.2925	33.9462
15.0265	49.3485
14.7697	63.2586
14.5214	69.5545
14.2814	72.5057
14.0492	79.8348
13.8244	84.0471
13.6067	84.4749
13.3957	81.6678
13.1912	79.4353
12.9929	77.0257
12.8004	81.4026
12.6135	79.6766
12.432	74.576
12.2557	65.7362
12.0843	49.5941
11.9176	29.7597
11.7555	17.4458
11.5977	10.3115
11.444	7.2422
11.2944	8.6841
11.1487	9.5102
11.0067	12.9048
10.8682	16.6972
10.7332	18.6972
10.6015	20.1572
10.473	25.5517
10.3476	38.0331
10.2251	47.934
10.1056	44.2352
9.98873	43.1766
9.87458	50.2157
9.763	55.6507
9.65392	60.0228
9.54724	63.0868
9.44291	64.6922
9.34082	65.7274
9.24091	66.5916
9.14312	67.8128
9.04739	69.577
8.95363	71.5037
8.8618	72.1605
8.77183	70.2967
8.68368	51.2308
8.59727	42.6332
8.51257	59.325
8.42951	73.9524
8.34807	78.3448
8.26819	81.5733
8.18981	84.751
8.11292	86.9168
8.03745	88.407
7.96337	89.5496
7.89064	90.4854
7.81924	91.2058
7.74911	91.544
7.68023	91.9131
7.61256	92.2234
7.54608	92.615
7.48074	92.7393
7.41653	92.9539
7.35341	93.0564
7.29136	93.2107
7.23034	93.2586
7.17033	92.616
7.11132	92.5859
7.05327	93.2571
6.99616	93.5645
6.93996	93.8235
6.88467	93.8923
6.83024	93.949
6.77667	94.0564
6.72393	94.3574
6.67201	94.616
6.62089	94.793
6.57054	94.9607
6.52095	94.9812
6.4721	95.0645
6.42398	95.1572
6.37657	94.9343
6.32986	94.7537
6.28382	94.7444
6.23845	94.9265
6.19373	94.9763
6.14965	94.2742
6.10619	94.114
6.06334	93.8835
6.02109	93.9082
5.97942	94.5769
5.93832	95.1104
5.89778	95.4597
5.8578	95.6934
5.81835	95.9746
5.77943	96.0107
5.74103	96.1728
5.70314	96.209
5.66574	96.1248
5.62883	96.002
5.5924	95.8914
5.55644	95.9932
5.52093	95.9502
5.48588	95.907
5.45127	96.033
5.41709	96.0906
5.38334	96.125
5.35	96.2881
5.31708	96.3767
5.28456	96.5691
5.25243	96.6973
5.2207	96.822
5.18934	96.8787
5.15836	96.9853
5.12775	97.0515
5.09749	97.0652
5.0676	97.1025
5.03805	97.1592
5.00884	97.1638
4.97998	97.176
4.95144	97.2507
4.92322	97.2581
4.89533	97.2908
4.86775	97.2512
4.84048	97.259
4.81351	97.3572
4.78684	97.3528
4.76047	97.2522
4.73439	97.281
4.70859	97.2131
4.68306	97.2761
4.65782	97.3044
4.63284	97.3259
4.60814	97.3533
4.58369	97.3611
4.5595	97.3904
4.53557	97.3577
4.51188	97.283
4.48845	97.3479
4.46525	97.3411
4.44229	97.3503
4.41957	97.2917
4.39708	97.2707
4.37481	97.2654
4.35277	97.1863
4.33096	97.1272
4.30935	97.0896
4.28797	97.1584
4.26679	97.2947
4.24583	97.3015
4.22506	97.3113
4.2045	97.2405
4.18414	97.24
4.16398	97.2136
4.14401	97.2502
4.12423	97.1941
4.10464	97.2112
4.08523	97.1257
4.066	97.1667
4.04696	97.094
4.02809	97.1526
4.0094	97.1213
3.99088	97.1062
3.97253	97.0959
3.95435	97.1326
3.93634	97.1252
3.91848	97.0613
3.90079	97.1623
3.88326	97.1414
3.86589	97.0925
3.84867	97.094
3.8316	97.1208
3.81468	97.0613
3.79791	97.0056
3.78129	97.03
3.76482	97.0295
3.74848	96.9665
3.73229	96.9123
3.71624	96.8655
3.70032	96.8298
3.68454	96.7673
3.6689	96.76
3.65338	96.6667
3.638	96.717
3.62275	96.5896
3.60762	96.4285
3.59262	96.4514
3.57775	96.3962
3.56299	96.2761
3.54836	96.2634
3.53385	96.238
3.51945	96.0212
3.50517	95.863
3.49101	95.8538
3.47696	95.7322
3.46303	95.6584
3.4492	95.5525
3.43549	95.3865
3.42188	95.1433
3.40838	94.9666
3.39499	94.906
3.38171	94.8342
3.36852	94.7947
3.35544	94.5388
3.34246	94.3928
3.32958	94.2678
3.3168	94.0593
3.30411	93.9158
3.29153	93.8279
3.27903	93.6736
3.26664	93.5354
3.25433	93.1834
3.24212	92.9104
3.23	92.7424
3.21797	92.3552
3.20603	92.0525
3.19418	91.8713
3.18241	91.8552
3.17074	91.6277
3.15914	91.364
3.14763	91.2752
3.13621	91.1834
3.12487	91.1296
3.11361	91.0857
3.10243	90.9002
3.09133	90.8367
3.0803	90.8025
3.06936	90.7224
3.0585	90.5105
3.04771	90.3611
3.037	90.4295
3.02636	90.4041
3.0158	90.2439
3.00531	90.1834
2.99489	90.1882
2.98454	90.4334
2.97427	90.6619
2.96407	91.033
2.95393	91.1599
2.94387	91.5037
2.93387	91.6765
2.92394	91.5828
2.91408	91.7029
2.90429	91.5896
2.89456	91.613
2.88489	91.4539
2.87529	91.2234
2.86576	91.0164
2.85628	91.1345
2.84687	91.3377
2.83752	91.4295
2.82823	91.4529
2.81901	91.4588
2.80984	91.4314
2.80073	91.3562
2.79168	91.2048
2.78269	90.8914
2.77376	89.8591
2.76488	86.8953
2.75606	73.8289
2.7473	61.6493
2.73859	70.5281
2.72994	92.1023
2.72134	94.0437
2.7128	94.7634
2.70431	95.1414
2.69587	95.239
2.68748	95.4109
2.67915	95.4802
2.67087	95.532
2.66264	95.2107
2.65446	95.1726
2.64633	95.1404
2.63825	94.9998
2.63021	95.1404
2.62223	94.7703
2.6143	94.7478
2.60641	94.7937
2.59857	94.9304
2.59078	94.7781
2.58304	94.9773
2.57534	94.6677
2.56768	94.4216
2.56008	94.4294
2.55251	94.113
2.54499	94.2595
2.53752	94.4353
2.53009	94.1404
2.5227	94.0642
2.51536	94.0935
2.50806	94.1111
2.5008	93.9998
2.49358	94.1384
2.4864	94.1834
2.47927	94.0408
2.47218	94.115
2.46512	93.8377
2.45811	94.0076
2.45114	93.9861
2.4442	93.8904
2.43731	94.1091
2.43045	93.7498
2.42363	93.7888
2.41685	93.7908
2.41011	93.9841
2.40341	93.7615
2.39674	93.7752
2.39011	93.8357
2.38352	93.6091
2.37696	93.4685
2.37044	93.5935
2.36395	93.6013
2.35751	93.5544
2.35109	93.4724
2.34471	93.5252
2.33836	93.4177
2.33205	93.3357
2.32578	93.2498
2.31953	93.5544
2.31332	93.7771
2.30714	93.5095
2.301	93.4763
2.29489	93.2673
2.28881	93.4548
2.28276	93.2908
2.27675	93.2595
2.27076	93.5877
2.26481	93.4705
2.25889	93.5662
2.253	93.5388
2.24714	93.3552
2.24131	93.197
2.23551	93.2732
2.22974	93.533
2.224	93.283
2.21829	93.3611
2.21261	93.5564
2.20696	93.3923
2.20134	93.1111
2.19574	93.4685
2.19018	93.5173
2.18464	93.5076
2.17913	93.2595
2.17365	93.4841
2.16819	93.8377
2.16277	93.6091
2.15737	93.6248
2.15199	93.3709
2.14665	93.3474
2.14133	93.3943
2.13603	93.5974
2.13077	93.6248
2.12552	93.488
2.12031	93.6521
2.11512	93.3982
2.10995	93.7068
2.10481	93.5427
2.0997	93.6326
2.09461	93.5623
2.08954	93.1209
2.0845	93.4099
2.07948	93.0662
