Name: Acmite NaFe+3Si2O6
Type: Mineral
Class: Silicates
Subclass: Inosilicates (Pyroxene Group - single chain)
Particle Size: Coarse (74-250 Micrometers)
Sample No.: acmite.2
Owner: JHU
Wavelength Range: IR
Origin: Sample from Kangerdluarssuk, near Narssaq, Greenland via
Description: The sample consisted of large (up to 2 cm long and
Measurement: Bidirectional reflectance
X Units: Wavelength (micrometers)
Y Units: Reflectance (percent)
wavelength	value
25.044	3.3921
24.339	3.0503
23.672	2.9136
23.041	3.3418
22.442	3.9385
21.874	4.4385
21.334	4.6894
20.82	4.6316
20.33	4.928
19.863	5.2768
19.416	4.8022
18.99	4.3664
18.581	4.1855
18.19	4.0229
17.815	4.3789
17.455	4.2663
17.109	3.3186
16.777	1.8115
16.458	0.7825
16.15	0.9338
15.854	1.1785
15.568	1.5525
15.292	1.25
15.027	0.9141
14.77	1.1003
14.521	1.199
14.281	1.3125
14.049	1.3618
13.824	1.4138
13.607	1.4136
13.396	1.5283
13.191	1.6721
12.993	1.7737
12.8	1.8208
12.614	1.8486
12.432	1.9214
12.256	1.9612
12.084	2.0464
11.918	2.1597
11.755	2.2793
11.598	2.2703
11.444	2.3682
11.294	2.5813
11.149	2.8191
11.007	3.0554
10.868	3.3262
10.733	3.77
10.602	4.3577
10.473	4.616
10.348	4.5627
10.225	4.5654
10.106	4.9285
9.989	5.3652
9.875	5.5036
9.763	5.478
9.654	5.6501
9.547	6.1831
9.443	6.6731
9.341	6.4565
9.241	5.8008
9.143	5.1369
9.047	4.4092
8.954	3.834
8.862	3.5891
8.772	3.7378
8.684	3.8201
8.597	2.9602
8.513	1.928
8.43	1.084
8.348	0.5874
8.268	0.4736
8.19	0.533
8.113	0.635
8.037	0.7219
7.963	0.7898
7.891	0.8603
7.819	0.9392
7.749	0.9956
7.68	1.0474
7.613	1.0967
7.546	1.1394
7.481	1.1587
7.417	1.2178
7.353	1.3
7.291	1.3845
7.23	1.4832
7.17	1.5684
7.111	1.6382
7.053	1.6809
6.996	1.7495
6.94	1.8284
6.885	1.865
6.83	1.8811
6.777	1.904
6.724	1.9543
6.672	1.9824
6.621	2.0234
6.571	2.0723
6.521	2.106
6.472	2.0698
6.424	1.9807
6.377	1.8979
6.33	1.8484
6.284	1.8176
6.238	1.7639
6.194	1.7749
6.15	1.8777
6.106	1.9731
6.063	1.9844
6.021	1.9348
5.979	1.8503
5.938	1.7449
5.898	1.709
5.858	1.7285
5.818	1.658
5.779	1.6094
5.741	1.6421
5.703	1.6758
5.666	1.7068
5.629	1.7842
5.592	1.9954
5.556	2.3269
5.521	2.6609
5.486	2.7783
5.451	2.7788
5.417	2.7561
5.383	2.7151
5.35	2.6616
5.317	2.6121
5.285	2.5759
5.252	2.5185
5.221	2.4897
5.189	2.5547
5.158	2.6782
5.128	2.793
5.097	2.9375
5.068	3.0818
5.038	3.209
5.009	3.3169
4.98	3.4282
4.951	3.5246
4.923	3.6064
4.895	3.7244
4.868	3.8425
4.84	3.9199
4.814	4.0061
4.787	4.0959
4.76	4.2185
4.734	4.3474
4.709	4.5205
4.683	4.8423
4.658	5.2019
4.633	5.5705
4.608	5.9253
4.584	6.2148
4.56	6.4368
4.536	6.6159
4.512	6.7446
4.488	6.8225
4.465	6.8923
4.442	6.9416
4.42	6.9812
4.397	7.0259
4.375	7.0586
4.353	7.0837
4.331	7.1035
4.309	7.1216
4.288	7.1435
4.267	7.1689
4.246	7.2063
4.225	7.2322
4.205	7.2595
4.184	7.2778
4.164	7.2976
4.144	7.3144
4.124	7.3406
4.105	7.3711
4.085	7.4126
4.066	7.4614
4.047	7.4985
4.028	7.5451
4.009	7.5696
3.991	7.5928
3.973	7.6208
3.954	7.644
3.936	7.6623
3.918	7.6709
3.901	7.6892
3.883	7.685
3.866	7.6809
3.849	7.6721
3.832	7.6721
3.815	7.6667
3.798	7.6841
3.781	7.6987
3.765	7.7131
3.748	7.7185
3.732	7.7248
3.716	7.7331
3.7	7.7336
3.685	7.7407
3.669	7.7461
3.653	7.7463
3.638	7.7551
3.623	7.7566
3.608	7.7563
3.593	7.7632
3.578	7.7453
3.563	7.7297
3.548	7.718
3.534	7.697
3.519	7.6728
3.505	7.6452
3.491	7.6291
3.477	7.6142
3.463	7.5962
3.449	7.5659
3.435	7.53
3.422	7.4819
3.408	7.4568
3.395	7.4431
3.382	7.417
3.369	7.3913
3.355	7.374
3.342	7.3533
3.33	7.3264
3.317	7.2727
3.304	7.2431
3.292	7.2068
3.279	7.1653
3.267	7.1242
3.254	7.0698
3.242	7.0173
3.23	6.9538
3.218	6.8904
3.206	6.8332
3.194	6.7659
3.182	6.6924
3.171	6.6186
3.159	6.5525
3.148	6.466
3.136	6.3862
3.125	6.3071
3.114	6.2356
3.102	6.1533
3.091	6.0801
3.08	6.0266
3.069	5.9568
3.058	5.9009
3.048	5.8564
3.037	5.7961
3.026	5.7285
3.016	5.6694
3.005	5.605
2.995	5.5454
2.985	5.4634
2.974	5.4082
2.964	5.3411
2.954	5.2925
2.944	5.2561
2.934	5.2222
2.924	5.2131
2.914	5.2046
2.904	5.1951
2.895	5.1951
2.885	5.1909
2.875	5.1843
2.866	5.1953
2.856	5.2178
2.847	5.207
2.838	5.2041
2.828	5.2065
2.819	5.2063
2.81	5.2358
2.801	5.2756
2.792	5.3274
2.783	5.3894
2.774	5.4311
2.765	5.4582
2.756	5.4568
2.747	5.5869
2.739	5.7124
2.73	5.8254
2.721	5.8281
2.713	5.8728
2.704	5.8828
2.696	6.1274
2.687	6.3362
2.679	6.3996
2.671	6.4106
2.663	6.4302
2.654	6.3828
2.646	6.3591
2.638	6.3269
2.63	6.2888
2.622	6.2424
2.614	6.2119
2.606	6.1702
2.599	6.1362
2.591	6.1001
2.583	6.0764
2.575	6.0073
2.568	5.9797
2.56	5.9306
2.553	5.8703
2.545	5.8467
2.538	5.8142
2.53	5.7627
2.523	5.7148
2.515	5.6711
2.508	5.6433
2.501	5.6152
2.494	5.5503
2.486	5.4844
2.479	5.4697
2.472	5.446
2.465	5.3877
2.458	5.3642
2.451	5.3349
2.444	5.2842
2.437	5.2322
2.43	5.1977
2.424	5.1726
2.417	5.1094
2.41	5.0889
2.403	5.0557
2.397	5.0078
2.39	4.9526
2.384	4.9202
2.377	4.8711
2.37	4.8447
2.364	4.8232
2.358	4.7693
2.351	4.7446
2.345	4.7051
2.338	4.6745
2.332	4.6401
2.326	4.5891
2.32	4.5664
2.313	4.5508
2.307	4.5083
2.301	4.4521
2.295	4.4141
2.289	4.4038
2.283	4.3657
2.277	4.3057
2.271	4.31
2.265	4.2661
2.259	4.2446
2.253	4.189
2.247	4.1587
2.241	4.146
2.236	4.1333
2.23	4.0774
2.224	4.0581
2.218	4.021
2.213	4.0063
2.207	3.9592
2.201	3.9504
2.196	3.8982
2.19	3.895
2.185	3.8411
2.179	3.8418
2.174	3.7983
2.168	3.7837
2.163	3.7676
2.157	3.6987
2.152	3.7075
2.147	3.6748
2.141	3.6301
2.136	3.6213
2.131	3.6099
2.126	3.5642
2.12	3.5251
2.115	3.5054
2.11	3.4873
2.105	3.4661
2.1	3.4531
2.095	3.427
2.09	3.3911
2.085	3.3833
2.079	3.3743
