Name: Analcime NaAlSi2O6.H2O
Type: Mineral
Class: Silicates
Subclass: Tectosilicates  (Framework silicates) (Zeolite Group)
Particle Size: 0-60 micrometers.  (Packed powder simulate coarse.)
Sample No.: analcime.1
Owner: JHU
Wavelength Range: IR
Origin: Sample from Mt. St. Hilaire, Quebec; donated by W. J. Ehmann
Description: The sample was only available to us as a fine (<60
Measurement: Bidirectional reflectance
X Units: Wavelength (micrometers)
Y Units: Reflectance (percent)
wavelength	value
25.044	7.8061
24.339	7.9006
23.672	8.1357
23.041	8.9951
22.442	10.7573
21.874	12.3735
21.334	11.3405
20.82	8.7468
20.33	5.9385
19.863	4.1284
19.416	3.2842
18.99	3.1741
18.581	3.1352
18.19	3.2119
17.815	3.2839
17.455	3.3977
17.109	3.4888
16.777	3.5954
16.458	3.645
16.15	3.5801
15.854	3.5342
15.568	3.6189
15.292	3.8039
15.027	3.8982
14.77	4.0652
14.521	4.1518
14.281	4.1528
14.049	4.21
13.824	4.3454
13.607	4.3606
13.396	4.1453
13.191	3.7568
12.993	3.4509
12.8	2.6797
12.614	3.102
12.432	3.759
12.256	4.3183
12.084	4.7117
11.918	5.0437
11.755	5.2534
11.598	5.4148
11.444	5.564
11.294	5.6313
11.149	5.6689
11.007	5.6462
10.868	5.6057
10.733	5.5696
10.602	5.5317
10.473	5.5686
10.348	5.6907
10.225	6.1306
10.106	6.5918
9.989	7.1645
9.875	7.8393
9.763	8.5493
9.654	9.3083
9.547	10.3156
9.443	10.9563
9.341	10.7085
9.241	9.4609
9.143	8.4949
9.047	8.393
8.954	8.7727
8.862	9.3874
8.772	9.7077
8.684	9.7058
8.597	9.8081
8.513	10.1113
8.43	9.4856
8.348	7.9673
8.268	5.9155
8.19	3.5449
8.113	1.3906
8.037	0.4302
7.963	0.4451
7.891	0.6582
7.819	0.906
7.749	1.1855
7.68	1.4636
7.613	1.7471
7.546	2.0154
7.481	2.2681
7.417	2.5122
7.353	2.7234
7.291	2.9031
7.23	3.0674
7.17	3.2114
7.111	3.3455
7.053	3.4553
6.996	3.561
6.94	3.6523
6.885	3.6963
6.83	3.7087
6.777	3.7598
6.724	3.8535
6.672	4.0193
6.621	4.1958
6.571	4.3088
6.521	4.3879
6.472	4.3181
6.424	4.0976
6.377	3.8843
6.33	3.7297
6.284	3.6079
6.238	3.3652
6.194	2.8188
6.15	2.0632
6.106	1.6116
6.063	1.9507
6.021	2.5583
5.979	3.261
5.938	3.7209
5.898	4.0522
5.858	4.3142
5.818	4.4531
5.779	4.5925
5.741	4.7134
5.703	4.8491
5.666	5.0183
5.629	5.1846
5.592	5.3469
5.556	5.4973
5.521	5.6806
5.486	5.9106
5.451	6.1409
5.417	6.3296
5.383	6.5093
5.35	6.6477
5.317	6.8125
5.285	6.9809
5.252	7.1184
5.221	7.2187
5.189	7.28
5.158	7.3542
5.128	7.4607
5.097	7.5774
5.068	7.6799
5.038	7.7488
5.009	7.7463
4.98	7.7158
4.951	7.6472
4.923	7.5805
4.895	7.5842
4.868	7.6758
4.84	7.8191
4.814	7.9563
4.787	8.0432
4.76	8.102
4.734	8.1435
4.709	8.2016
4.683	8.3137
4.658	8.4807
4.633	8.6855
4.608	8.9214
4.584	9.1728
4.56	9.4363
4.536	9.6909
4.512	9.9304
4.488	10.1574
4.465	10.3908
4.442	10.6447
4.42	10.9458
4.397	11.2536
4.375	11.5342
4.353	11.8083
4.331	12.0508
4.309	12.2793
4.288	12.4743
4.267	12.6609
4.246	12.833
4.225	12.999
4.205	13.1501
4.184	13.2881
4.164	13.4091
4.144	13.5195
4.124	13.6123
4.105	13.7024
4.085	13.7929
4.066	13.8757
4.047	13.9524
4.028	14.0293
4.009	14.0832
3.991	14.1208
3.973	14.1728
3.954	14.2041
3.936	14.2553
3.918	14.2863
3.901	14.3139
3.883	14.3237
3.866	14.323
3.849	14.3276
3.832	14.3142
3.815	14.2917
3.798	14.2754
3.781	14.2566
3.765	14.3039
3.748	14.3156
3.732	14.281
3.716	14.2522
3.7	14.2251
3.685	14.1853
3.669	14.1369
3.653	14.0769
3.638	14.0273
3.623	13.9538
3.608	13.8886
3.593	13.8203
3.578	13.7588
3.563	13.6699
3.548	13.5808
3.534	13.4983
3.519	13.3881
3.505	13.2397
3.491	13.1638
3.477	13.0747
3.463	12.9619
3.449	12.8298
3.435	12.6833
3.422	12.497
3.408	12.3896
3.395	12.2973
3.382	12.154
3.369	12.0163
3.355	11.8799
3.342	11.7258
3.33	11.5612
3.317	11.385
3.304	11.2129
3.292	11.0205
3.279	10.8398
3.267	10.6626
3.254	10.4514
3.242	10.2597
3.23	10.0359
3.218	9.8237
3.206	9.605
3.194	9.3816
3.182	9.1577
3.171	8.894
3.159	8.6245
3.148	8.3672
3.136	8.083
3.125	7.7915
3.114	7.4123
3.102	6.9968
3.091	6.5596
3.08	6.187
3.069	5.9009
3.058	5.7202
3.048	5.6616
3.037	5.6094
3.026	5.5618
3.016	5.4541
3.005	5.324
2.995	5.1626
2.985	4.9853
2.974	4.7805
2.964	4.5828
2.954	4.3708
2.944	4.1453
2.934	3.9321
2.924	3.7112
2.914	3.522
2.904	3.3413
2.895	3.1743
2.885	3.0161
2.875	2.9014
2.866	2.7837
2.856	2.6736
2.847	2.5674
2.838	2.4568
2.828	2.3318
2.819	2.2078
2.81	2.1924
2.801	2.2637
2.792	2.2244
2.783	2.1106
2.774	1.9629
2.765	1.8533
2.756	1.9419
2.747	2.3176
2.739	3.1912
2.73	4.0571
2.721	4.6567
2.713	5.2746
2.704	5.9665
2.696	6.6484
2.687	7.2309
2.679	7.6675
2.671	8.0119
2.663	8.3955
2.654	8.7395
2.646	9.0407
2.638	9.2903
2.63	9.4084
2.622	9.5766
2.614	9.6247
2.606	9.6015
2.599	9.5615
2.591	9.4348
2.583	9.2295
2.575	8.9978
2.568	8.7007
2.56	8.3694
2.553	8.0906
2.545	7.9089
2.538	7.8496
2.53	7.9411
2.523	8.0356
2.515	8.1836
2.508	8.2937
2.501	8.355
2.494	8.4678
2.486	8.6438
2.479	8.8745
2.472	9.1799
2.465	9.539
2.458	9.9487
2.451	10.3808
2.444	10.8779
2.437	11.393
2.43	11.9541
2.424	12.4807
2.417	12.9707
2.41	13.3894
2.403	13.6609
2.397	13.9289
2.39	14.1709
2.384	14.3794
2.377	14.5498
2.37	14.7011
2.364	14.8464
2.358	14.9736
2.351	15.0586
2.345	15.1733
2.338	15.2314
2.332	15.2878
2.326	15.3642
2.32	15.4702
2.313	15.5327
2.307	15.5842
2.301	15.6245
2.295	15.7192
2.289	15.7751
2.283	15.8134
2.277	15.8979
2.271	15.9497
2.265	16.0297
2.259	16.0493
2.253	16.0871
2.247	16.0986
2.241	16.1023
2.236	16.1923
2.23	16.1767
2.224	16.2075
2.218	16.25
2.213	16.2216
2.207	16.2631
2.201	16.2915
2.196	16.2675
2.19	16.3232
2.185	16.3024
2.179	16.278
2.174	16.2463
2.168	16.2819
2.163	16.2937
2.157	16.2011
2.152	16.1301
2.147	16.1189
2.141	16.1289
2.136	16.1474
2.131	16.1367
2.126	16.2094
2.12	16.2558
2.115	16.309
2.11	16.4038
2.105	16.457
2.1	16.4973
2.095	16.5805
2.09	16.6279
2.085	16.6533
2.079	16.5969
