Name: Johnstown
Type: Stony Meteorites
Class: Achondrite
Subclass: Diogenite
Particle Size: 0-75 micrometers
Sample No.: Johnstown
Owner: JHU
Origin: Meteorite seen to fall in Colorado in 1924.  Smithsonian sample No.
Description: None.
Measurement: Bidirectional reflectance
X Units: Wavelength (micrometers)
Y Units: Reflectance (percent)
wavelength	value
25.044	0.7983
24.339	0.9639
23.672	1.0112
23.041	1.2922
22.442	1.4836
21.874	1.4182
21.334	1.2014
20.82	1.4311
20.33	1.852
19.863	2.1672
19.416	2.176
18.99	1.6348
18.581	1.6853
18.19	1.6841
17.815	1.5974
17.455	1.981
17.109	1.9233
16.777	1.936
16.458	1.6257
16.15	0.8135
15.854	0.5542
15.568	0.5579
15.292	0.4263
15.027	0.4846
14.77	0.5762
14.521	0.7673
14.281	0.7551
14.049	0.8332
13.824	0.7886
13.607	0.8301
13.396	0.9568
13.191	1.116
12.993	1.4311
12.8	1.6382
12.614	1.6284
12.432	1.6047
12.256	1.4346
12.084	1.2082
11.918	1.1309
11.755	1.1677
11.598	1.3013
11.444	1.4551
11.294	1.5427
11.149	1.1492
11.007	0.8843
10.868	1.1272
10.733	1.365
10.602	1.4453
10.473	1.6348
10.348	1.6228
10.225	1.8394
10.106	1.5598
9.9887	1.3091
9.8746	1.0676
9.763	1.1895
9.6539	1.5171
9.5472	1.8757
9.4429	2.0308
9.3408	1.9744
9.2409	1.9663
9.1431	2.0195
9.0474	2.0478
8.9536	1.9092
8.8618	1.8564
8.7718	1.6953
8.6837	1.2456
8.5973	0.5508
8.5126	0.3196
8.4295	0.3323
8.3481	0.429
8.2682	0.5984
8.1898	0.8416
8.1129	1.1492
8.0374	1.481
7.9634	1.7888
7.8906	2.0791
7.8192	2.3657
7.7491	2.6423
7.6802	2.9048
7.6126	3.1038
7.5461	3.2922
7.4807	3.4849
7.4165	3.6648
7.3534	3.8833
7.2914	4.113
7.2303	4.2856
7.1703	4.3972
7.1113	4.4817
7.0533	4.5359
6.9962	4.6037
6.94	4.6694
6.8847	4.7646
6.8302	4.8877
6.7767	4.9463
6.7239	4.9687
6.672	4.9114
6.6209	4.7766
6.5705	4.8069
6.5209	4.917
6.4721	4.874
6.424	4.7446
6.3766	4.5105
6.3299	4.2263
6.2838	4.1059
6.2385	4.0832
6.1937	4.1186
6.1496	4.311
6.1062	4.4873
6.0633	4.5486
6.0211	4.583
5.9794	4.6892
5.9383	5.06
5.8978	5.3955
5.8578	5.54
5.8184	5.5288
5.7794	5.5034
5.741	5.563
5.7031	5.6482
5.6657	5.6953
5.6288	5.7524
5.5924	5.904
5.5564	6.1435
5.5209	6.2493
5.4859	6.1841
5.4513	6.1003
5.4171	6.0972
5.3833	6.2024
5.35	6.2495
5.3171	6.1164
5.2846	5.8293
5.2524	5.562
5.2207	5.3337
5.1893	5.1267
5.1584	5.0571
5.1277	5.2168
5.0975	5.4241
5.0676	5.6521
5.038	5.8564
5.0088	5.977
4.98	6.04
4.9514	6.1128
4.9232	6.1931
4.8953	6.2507
4.8678	6.2988
4.8405	6.4116
4.8135	6.6096
4.7868	6.8474
4.7605	7.0354
4.7344	7.1618
4.7086	7.2925
4.6831	7.4761
4.6578	7.6892
4.6328	7.914
4.6081	8.1076
4.5837	8.2527
4.5595	8.3569
4.5356	8.4284
4.5119	8.4826
4.4884	8.508
4.4652	8.5244
4.4423	8.5466
4.4196	8.5647
4.3971	8.5808
4.3748	8.593
4.3528	8.5981
4.331	8.6042
4.3094	8.6233
4.288	8.6399
4.2668	8.664
4.2458	8.6924
4.2251	8.718
4.2045	8.7434
4.1841	8.7649
4.164	8.7846
4.144	8.8066
4.1242	8.8242
4.1046	8.8452
4.0852	8.8701
4.066	8.8908
4.047	8.9123
4.0281	8.9311
4.0094	8.9458
3.9909	8.9594
3.9725	8.9773
3.9544	8.9941
3.9363	9.0027
3.9185	9.019
3.9008	9.04
3.8833	9.0586
3.8659	9.074
3.8487	9.0896
3.8316	9.0974
3.8147	9.1081
3.7979	9.1291
3.7813	9.133
3.7648	9.1489
3.7485	9.1611
3.7323	9.1748
3.7162	9.1887
3.7003	9.1863
3.6845	9.1924
3.6689	9.198
3.6534	9.206
3.638	9.2168
3.6227	9.2312
3.6076	9.2405
3.5926	9.2407
3.5777	9.248
3.563	9.2412
3.5484	9.2334
3.5338	9.2302
3.5195	9.1894
3.5052	9.0908
3.491	9.1069
3.477	9.1433
3.463	9.155
3.4492	9.1311
3.4355	9.0688
3.4219	8.9492
3.4084	8.9565
3.395	9.0827
3.3817	9.1069
3.3685	9.1428
3.3554	9.2219
3.3425	9.2568
3.3296	9.2678
3.3168	9.282
3.3041	9.2773
3.2915	9.2793
3.279	9.2822
3.2666	9.2688
3.2543	9.2751
3.2421	9.2668
3.23	9.2615
3.218	9.2578
3.206	9.2558
3.1942	9.2412
3.1824	9.2287
3.1707	9.2185
3.1591	9.2055
3.1476	9.197
3.1362	9.1875
3.1249	9.1731
3.1136	9.1653
3.1024	9.1484
3.0913	9.1487
3.0803	9.1338
3.0694	9.1286
3.0585	9.1189
3.0477	9.1164
3.037	9.1062
3.0264	9.0893
3.0158	9.0832
3.0053	9.0761
2.9949	9.0617
2.9845	9.0635
2.9743	9.0515
2.9641	9.0554
2.9539	9.052
2.9439	9.0588
2.9339	9.0547
2.9239	9.0722
2.9141	9.0678
2.9043	9.0801
2.8946	9.0898
2.8849	9.0932
2.8753	9.1206
2.8658	9.1333
2.8563	9.1487
2.8469	9.1736
2.8375	9.1921
2.8282	9.2143
2.819	9.2478
2.8098	9.282
2.8007	9.3178
2.7917	9.3701
2.7827	9.4128
2.7738	9.4763
2.7649	9.5354
2.7561	9.6025
2.7473	9.6775
2.7386	9.726
2.7299	9.811
2.7213	9.8464
2.7128	9.9109
2.7043	9.9699
2.6959	9.9988
2.6875	10.021
2.6791	10.031
2.6709	10.023
2.6626	10.015
2.6545	10.035
2.6463	10.03
2.6382	10.013
2.6302	9.9939
2.6222	9.9785
2.6143	9.967
2.6064	9.9477
2.5986	9.9294
2.5908	9.9099
2.583	9.8838
2.5753	9.872
2.5677	9.8513
2.5601	9.8181
2.5525	9.801
2.545	9.7881
2.5375	9.7632
2.5301	9.7346
2.5227	9.7099
2.5154	9.6909
2.5081	9.6574
2.5008	9.6428
2.4936	9.6213
2.4864	9.5847
2.4793	9.5588
2.4722	9.5158
2.4651	9.4756
2.4581	9.4514
2.4511	9.4145
2.4442	9.3803
2.4373	9.3574
2.4305	9.3266
2.4236	9.2768
2.4169	9.2468
2.4101	9.2036
2.4034	9.1794
2.3967	9.1118
2.3901	9.0923
2.3835	9.041
2.377	8.9951
2.3704	8.9531
2.364	8.8987
2.3575	8.8708
2.3511	8.8171
2.3447	8.7698
2.3384	8.7331
2.3321	8.7024
2.3258	8.6423
2.3195	8.5747
2.3133	8.5434
2.3071	8.4966
2.301	8.448
2.2949	8.3896
2.2888	8.3357
2.2828	8.2966
2.2767	8.2326
2.2708	8.2085
2.2648	8.1313
2.2589	8.0862
2.253	8.0437
2.2471	7.9997
2.2413	7.9375
2.2355	7.8813
2.2297	7.7944
2.224	7.7571
2.2183	7.7104
2.2126	7.6323
2.207	7.5681
2.2013	7.541
2.1957	7.5007
2.1902	7.4353
2.1846	7.3674
2.1791	7.3362
2.1736	7.2583
2.1682	7.2112
2.1628	7.1382
2.1574	7.0906
2.152	7.0376
2.1466	6.9848
2.1413	6.9302
2.136	6.8435
2.1308	6.8208
2.1255	6.7334
2.1203	6.6992
2.1151	6.6306
2.11	6.5959
2.1048	6.5317
2.0997	6.48
2.0946	6.4607
2.0895	6.4133
2.0845	6.3677
2.0795	6.3203
