Name: Hypersthene (Mg,Fe+2)2Si2O6
Type: Mineral
Class: Silicates
Subclass: Inosilicates (Pyroxene Group)
Particle Size: Solid (cleavage face)
Sample No.: hypersth.1
Owner: JHU
Wavelength Range: IR
Origin: Western Greenland, via the Smithsonian (sample no. NMNH
Description: Black in color; a small amount of surface contamination
Measurement: Bidirectional reflectance
X Units: Wavelength (micrometers)
Y Units: Reflectance (percent)
wavelength	value
25.0442	33.4589
24.3388	32.4775
23.6719	32.703
23.0407	35.6894
22.4422	37.6669
21.8741	39.2328
21.334	38.1059
20.8199	40.2621
20.33	44.6908
19.8627	48.7521
19.4163	46.8185
18.9896	39.3771
18.5812	38.1271
18.19	37.0978
17.815	34.7841
17.4551	37.9423
17.1094	34.2831
16.7772	31.0119
16.4576	25.7824
16.15	20.329
15.8537	21.3901
15.568	20.0629
15.2925	19.7243
15.0265	18.8063
14.7697	19.5214
14.5214	20.4499
14.2814	17.0229
14.0492	16.0883
13.8244	16.6359
13.6067	15.8847
13.3957	16.2133
13.1912	16.04
12.9929	16.7724
12.8004	17.8999
12.6135	18.874
12.432	19.9719
12.2557	21.2768
12.0843	22.716
11.9176	24.2089
11.7555	26.2197
11.5977	28.2997
11.444	30.3468
11.2944	31.0705
11.1487	27.6713
11.0067	25.9113
10.8682	29.2153
10.7332	31.9599
10.6015	32.8954
10.473	33.8625
10.3476	33.2057
10.2251	36.4506
10.1056	36.2621
9.98873	36.0348
9.87458	34.9757
9.763	36.0763
9.65392	36.1757
9.54724	36.5038
9.44291	39.9992
9.34082	42.4948
9.24091	40.8173
9.14312	38.5065
9.04739	36.5849
8.95363	33.6581
8.8618	30.1308
8.77183	24.2646
8.68368	16.6962
8.59727	10.4548
8.51257	7.7849
8.42951	8.4726
8.34807	10.7458
8.26819	12.2229
8.18981	12.5041
8.11292	12.1093
8.03745	11.5029
7.96337	10.9953
7.89064	10.7314
7.81924	10.802
7.74911	11.0737
7.68023	11.4563
7.61256	11.8144
7.54608	12.1257
7.48074	12.3952
7.41653	12.6189
7.35341	12.8061
7.29136	12.9753
7.23034	13.1313
7.17033	13.2558
7.11132	13.3943
7.05327	13.4753
6.99616	13.5681
6.93996	13.5771
6.88467	13.6303
6.83024	13.6735
6.77667	13.6562
6.72393	13.6604
6.67201	13.7287
6.62089	13.809
6.57054	13.8154
6.52095	13.8784
6.4721	13.8713
6.42398	13.8259
6.37657	13.8728
6.32986	13.9233
6.28382	13.9904
6.23845	13.9765
6.19373	13.9511
6.14965	14.0185
6.10619	14.0808
6.06334	14.143
6.02109	14.1506
5.97942	14.0671
5.93832	13.5305
5.89778	13.6172
5.8578	13.8413
5.81835	13.9184
5.77943	14.1225
5.74103	14.3149
5.70314	14.3498
5.66574	14.3637
5.62883	14.3908
5.5924	14.4604
5.55644	14.5346
5.52093	14.6064
5.48588	14.6643
5.45127	14.7104
5.41709	14.6921
5.38334	14.7209
5.35	14.7202
5.31708	14.7275
5.28456	14.6994
5.25243	14.6523
5.2207	14.6054
5.18934	14.5561
5.15836	14.5105
5.12775	14.5127
5.09749	14.5127
5.0676	14.5244
5.03805	14.55
5.00884	14.5371
4.97998	14.5263
4.95144	14.5407
4.92322	14.5608
4.89533	14.582
4.86775	14.6101
4.84048	14.6316
4.81351	14.6789
4.78684	14.748
4.76047	14.8169
4.73439	14.8623
4.70859	14.8969
4.68306	14.9233
4.65782	15.0085
4.63284	15.1093
4.60814	15.1972
4.58369	15.2456
4.5595	15.2812
4.53557	15.3012
4.51188	15.3164
4.48845	15.292
4.46525	15.268
4.44229	15.2255
4.41957	15.1928
4.39708	15.1772
4.37481	15.1836
4.35277	15.1733
4.33096	15.1833
4.30935	15.2109
4.28797	15.2299
4.26679	15.2509
4.24583	15.259
4.22506	15.2688
4.2045	15.2778
4.18414	15.29
4.16398	15.3227
4.14401	15.3254
4.12423	15.3371
4.10464	15.3547
4.08523	15.3845
4.066	15.396
4.04696	15.3881
4.02809	15.395
4.0094	15.4062
3.99088	15.4184
3.97253	15.434
3.95435	15.4641
3.93634	15.4677
3.91848	15.4795
3.90079	15.4914
3.88326	15.4956
3.86589	15.4924
3.84867	15.5024
3.8316	15.5073
3.81468	15.5014
3.79791	15.5202
3.78129	15.5158
3.76482	15.4809
3.74848	15.4868
3.73229	15.4721
3.71624	15.457
3.70032	15.4458
3.68454	15.4226
3.6689	15.3989
3.65338	15.375
3.638	15.3674
3.62275	15.3139
3.60762	15.2973
3.59262	15.2724
3.57775	15.2504
3.56299	15.2392
3.54836	15.2104
3.53385	15.1767
3.51945	15.1601
3.50517	15.1474
3.49101	15.1421
3.47696	15.1076
3.46303	15.0551
3.4492	15.0092
3.43549	14.9824
3.42188	14.9902
3.40838	14.9546
3.39499	14.8867
3.38171	14.8291
3.36852	14.8247
3.35544	14.7026
3.34246	14.5966
3.32958	14.5019
3.3168	14.4282
3.30411	14.3479
3.29153	14.2631
3.27903	14.1843
3.26664	14.0832
3.25433	13.9729
3.24212	13.8911
3.23	13.792
3.21797	13.6838
3.20603	13.6079
3.19418	13.5083
3.18241	13.4362
3.17074	13.3552
3.15914	13.2595
3.14763	13.1867
3.13621	13.1399
3.12487	13.0588
3.11361	12.9543
3.10243	12.9016
3.09133	12.8296
3.0803	12.7544
3.06936	12.6809
3.0585	12.6069
3.04771	12.5529
3.037	12.4956
3.02636	12.4609
3.0158	12.4182
3.00531	12.3703
2.99489	12.3349
2.98454	12.2739
2.97427	12.1826
2.96407	12.0822
2.95393	11.997
2.94387	11.9389
2.93387	11.8427
2.92394	11.7932
2.91408	11.7256
2.90429	11.6904
2.89456	11.6572
2.88489	11.591
2.87529	11.5334
2.86576	11.4785
2.85628	11.4494
2.84687	11.4233
2.83752	11.3711
2.82823	11.3244
2.81901	11.2834
2.80984	11.289
2.80073	11.2932
2.79168	11.2871
2.78269	11.3076
2.77376	11.3818
2.76488	11.4653
2.75606	11.5488
2.7473	11.7317
2.73859	11.9016
2.72994	12.0771
2.72134	12.2695
2.7128	12.469
2.70431	12.6242
2.69587	12.7102
2.68748	12.7724
2.67915	12.7639
2.67087	12.7451
2.66264	12.7236
2.65446	12.6953
2.64633	12.6494
2.63825	12.6167
2.63021	12.5952
2.62223	12.5727
2.6143	12.5239
2.60641	12.4463
2.59857	12.4394
2.59078	12.4028
2.58304	12.3501
2.57534	12.3257
2.56768	12.3139
2.56008	12.2656
2.55251	12.2441
2.54499	12.2309
2.53752	12.1938
2.53009	12.1748
2.5227	12.1172
2.51536	12.1098
2.50806	12.0927
2.5008	12.0781
2.49358	12.0351
2.4864	11.9736
2.47927	11.9594
2.47218	11.9394
2.46512	11.8579
2.45811	11.854
2.45114	11.8423
2.4442	11.7837
2.43731	11.7236
2.43045	11.7666
2.42363	11.7002
2.41685	11.7192
2.41011	11.7129
2.40341	11.7119
2.39674	11.664
2.39011	11.6455
2.38352	11.6626
2.37696	11.6543
2.37044	11.6606
2.36395	11.6035
2.35751	11.6465
2.35109	11.6445
2.34471	11.6216
2.33836	11.6274
2.33205	11.5967
2.32578	11.6391
2.31953	11.6157
2.31332	11.6406
2.30714	11.6113
2.301	11.6465
2.29489	11.6035
2.28881	11.6465
2.28276	11.6465
2.27675	11.6601
2.27076	11.6093
2.26481	11.6338
2.25889	11.6513
2.253	11.6347
2.24714	11.5898
2.24131	11.5595
2.23551	11.5586
2.22974	11.5908
2.224	11.5713
2.21829	11.5674
2.21261	11.5332
2.20696	11.5429
2.20134	11.5537
2.19574	11.542
2.19018	11.5517
2.18464	11.582
2.17913	11.5195
2.17365	11.5556
2.16819	11.54
2.16277	11.4736
2.15737	11.5205
2.15199	11.4756
2.14665	11.4785
2.14133	11.5009
2.13603	11.5117
2.13077	11.4941
2.12552	11.4902
2.12031	11.5322
2.11512	11.5488
2.10995	11.4941
2.10481	11.4863
2.0997	11.414
2.09461	11.4648
2.08954	11.4658
2.0845	11.4531
2.07948	11.4238
