Name: Sepiolite Mg4Si6O15(OH)2.6H2)
Type: Mineral
Class: Silicates
Subclass: Phyllosilicates (Sheet silicates); Sepiolite Group
Particle Size: Fine  (0-2  Micrometers)
Sample No.: sepiolite.1
Owner: JHU
Wavelength Range: IR
Origin: Two Crows, Nev., USA via Hunt and Salisbury Collection #CMS
Description: White, earthy clay.  Sepiolite plus a small amount of
Measurement: Bidirectional reflectance
X Units: Wavelength (micrometers)
Y Units: Reflectance (percent)
wavelength	value
25.044	1.2588
24.339	1.1897
23.672	1.1094
23.041	1.0693
22.442	0.8901
21.874	1.0117
21.334	1.1299
20.82	1.2583
20.33	1.1743
19.863	1.1218
19.416	1.2144
18.99	1.2341
18.581	1.2847
18.19	1.2603
17.815	1.1145
17.455	0.8284
17.109	0.6152
16.777	0.5383
16.458	0.5552
16.15	0.6665
15.854	0.8977
15.568	0.8325
15.292	0.5823
15.027	0.6201
14.77	0.7707
14.521	0.7117
14.281	0.5869
14.049	1.1694
13.824	1.5652
13.607	1.956
13.396	2.5151
13.191	2.7632
12.993	2.4182
12.8	1.7524
12.614	2.2522
12.432	3.1269
12.256	3.7353
12.084	4.0459
11.918	4.0452
11.755	3.4758
11.598	2.7842
11.444	2.8918
11.294	3.1057
11.149	3.3994
11.007	3.3345
10.868	3.0044
10.733	2.6518
10.602	2.1382
10.473	1.4231
10.348	0.9023
10.225	0.7361
10.106	0.7256
9.9887	0.6545
9.8746	0.644
9.763	0.7473
9.6539	0.9387
9.5472	1.0195
9.4429	1.0381
9.3408	0.8291
9.2409	0.8486
9.1431	0.9326
9.0474	0.728
8.9536	1.0171
8.8618	0.9785
8.7718	1.1829
8.6837	1.21
8.5973	0.8516
8.5126	0.5078
8.4295	0.4209
8.3481	0.4065
8.2682	0.459
8.1898	0.4673
8.1129	0.4758
8.0374	0.5991
7.9634	0.7986
7.8906	1.0574
7.8192	1.3247
7.7491	1.5957
7.6802	1.8879
7.6126	2.125
7.5461	2.2856
7.4807	2.3108
7.4165	2.2766
7.3534	2.2585
7.2914	2.3362
7.2303	2.5466
7.1703	2.7654
7.1113	2.9355
7.0533	3.1633
6.9962	3.4538
6.94	3.7363
6.8847	4.0254
6.8302	4.4429
6.7767	4.8723
6.7239	5.1711
6.672	5.3464
6.6209	5.4302
6.5705	5.4775
6.5209	5.6077
6.4721	5.6706
6.424	5.6316
6.3766	5.5012
6.3299	5.1462
6.2838	4.3284
6.2385	2.5632
6.1937	0.7822
6.1496	0.707
6.1062	1.5676
6.0633	1.7551
6.0211	1.7502
5.9794	2.6045
5.9383	3.624
5.8978	4.4497
5.8578	4.9873
5.8184	5.2598
5.7794	5.5791
5.741	5.926
5.7031	6.146
5.6657	6.2707
5.6288	6.2849
5.5924	6.1999
5.5564	6.2056
5.5209	6.3559
5.4859	6.5349
5.4513	6.749
5.4171	6.9475
5.3833	7.0466
5.35	7.0305
5.3171	7.0495
5.2846	7.1338
5.2524	7.2456
5.2207	7.2971
5.1893	7.2744
5.1584	7.3122
5.1277	7.4909
5.0975	7.7016
5.0676	7.948
5.038	8.1684
5.0088	8.3264
4.98	8.386
4.9514	8.4343
4.9232	8.4416
4.8953	8.3928
4.8678	8.3586
4.8405	8.3523
4.8135	8.3877
4.7868	8.3667
4.7605	8.2783
4.7344	8.1631
4.7086	8.1999
4.6831	8.3074
4.6578	8.4092
4.6328	8.5024
4.6081	8.5715
4.5837	8.6133
4.5595	8.6543
4.5356	8.7141
4.5119	8.8078
4.4884	8.9067
4.4652	8.9841
4.4423	9.0469
4.4196	9.1472
4.3971	9.2517
4.3748	9.3471
4.3528	9.4602
4.331	9.5757
4.3094	9.7148
4.288	9.843
4.2668	9.9707
4.2458	10.069
4.2251	10.161
4.2045	10.234
4.1841	10.306
4.164	10.369
4.144	10.427
4.1242	10.488
4.1046	10.559
4.0852	10.626
4.066	10.682
4.047	10.765
4.0281	10.825
4.0094	10.888
3.9909	10.94
3.9725	10.963
3.9544	11.018
3.9363	11.048
3.9185	11.094
3.9008	11.124
3.8833	11.124
3.8659	11.116
3.8487	11.121
3.8316	11.117
3.8147	11.124
3.7979	11.129
3.7813	11.132
3.7648	11.123
3.7485	11.114
3.7323	11.101
3.7162	11.081
3.7003	11.043
3.6845	11.019
3.6689	10.981
3.6534	10.938
3.638	10.892
3.6227	10.848
3.6076	10.785
3.5926	10.716
3.5777	10.656
3.563	10.576
3.5484	10.489
3.5338	10.393
3.5195	10.213
3.5052	9.8821
3.491	9.9416
3.477	9.9326
3.463	9.8281
3.4492	9.6841
3.4355	9.4697
3.4219	9.1509
3.4084	8.9375
3.395	9.1054
3.3817	8.9875
3.3685	8.9704
3.3554	8.8723
3.3425	8.7068
3.3296	8.5298
3.3168	8.3364
3.3041	8.1477
3.2915	7.9575
3.279	7.781
3.2666	7.5632
3.2543	7.3391
3.2421	7.1072
3.23	6.8525
3.218	6.6042
3.206	6.374
3.1942	6.1186
3.1824	5.8518
3.1707	5.571
3.1591	5.2588
3.1476	4.9299
3.1362	4.6118
3.1249	4.2651
3.1136	4.0249
3.1024	3.886
3.0913	3.7117
3.0803	3.5347
3.0694	3.3957
3.0585	3.3074
3.0477	3.2532
3.037	3.2134
3.0264	3.1001
3.0158	2.9656
3.0053	2.8347
2.9949	2.7263
2.9845	2.584
2.9743	2.481
2.9641	2.374
2.9539	2.2956
2.9439	2.2339
2.9339	2.158
2.9239	2.1179
2.9141	2.0671
2.9043	2.0085
2.8946	1.906
2.8849	1.8025
2.8753	1.6465
2.8658	1.447
2.8563	1.2576
2.8469	1.042
2.8375	0.9014
2.8282	0.792
2.819	0.7214
2.8098	0.7183
2.8007	0.8179
2.7917	0.915
2.7827	0.991
2.7738	0.9895
2.7649	0.9697
2.7561	1.0081
2.7473	1.2825
2.7386	1.9163
2.7299	2.7329
2.7213	2.344
2.7128	2.5547
2.7043	4.5471
2.6959	5.5954
2.6875	3.6736
2.6791	7.488
2.6709	8.0534
2.6626	8.5554
2.6545	8.8535
2.6463	9.1057
2.6382	9.2912
2.6302	9.3918
2.6222	9.5322
2.6143	9.6157
2.6064	9.6543
2.5986	9.7468
2.5908	9.74
2.583	9.7453
2.5753	9.7368
2.5677	9.7319
2.5601	9.6794
2.5525	9.6567
2.545	9.6487
2.5375	9.6181
2.5301	9.5962
2.5227	9.5744
2.5154	9.5857
2.5081	9.6177
2.5008	9.6587
2.4936	9.7192
2.4864	9.7502
2.4793	9.7751
2.4722	9.7864
2.4651	9.7673
2.4581	9.8105
2.4511	9.8508
2.4442	9.8652
2.4373	9.9341
2.4305	9.9721
2.4236	10.023
2.4169	10.091
2.4101	10.18
2.4034	10.307
2.3967	10.228
2.3901	10.216
2.3835	10.398
2.377	10.638
2.3704	10.801
2.364	10.942
2.3575	11.04
2.3511	11.169
2.3447	11.262
2.3384	11.321
2.3321	11.313
2.3258	11.228
2.3195	11.013
2.3133	10.508
2.3071	10.601
2.301	11.012
2.2949	11.091
2.2888	11.172
2.2828	11.364
2.2767	11.558
2.2708	11.693
2.2648	11.762
2.2589	11.825
2.253	11.862
2.2471	11.883
2.2413	11.905
2.2355	11.949
2.2297	11.95
2.224	11.997
2.2183	11.999
2.2126	12.017
2.207	12.029
2.2013	12.063
2.1957	12.073
2.1902	11.944
2.1846	11.965
2.1791	12.162
2.1736	12.244
2.1682	12.295
2.1628	12.422
2.1574	12.448
2.152	12.406
2.1466	12.424
2.1413	12.493
2.136	12.556
2.1308	12.559
2.1255	12.596
2.1203	12.659
2.1151	12.657
2.11	12.741
2.1048	12.758
2.0997	12.815
2.0946	12.847
2.0895	12.911
2.0845	12.889
2.0795	12.891
