Name: Illite/smectite (K,H3O)(Al,Mg,Fe)2(Si,Al)4 O10 [(OH)2,H2O]
Type: Mineral
Class: Silicates
Subclass: Phyllosilicates (Sheet Silicates) (Mica Group)
Particle Size: Fine  (0-2 micrometers)
Owner: JHU
Wavelength Range: IR
Origin: Cameron, Arizona; from Hunt and Salisbury Collection #31
Description: The sample was a light tan, earthy clay. Called
Measurement: Bidirectional reflectance
X Units: Wavelength (micrometers)
Y Units: Reflectance (percent)
wavelength	value
25.0442	2.5542
24.3388	2.7541
23.6719	2.8577
23.0407	2.7231
22.4422	2.6189
21.8741	2.9492
21.334	3.4355
20.8199	3.334
20.33	2.5903
19.8627	2.5581
19.4163	2.853
18.9896	3.2515
18.5812	3.5171
18.19	3.5029
17.815	3.3398
17.4551	3.1045
17.1094	2.7908
16.7772	2.2266
16.4576	1.6475
16.15	1.2024
15.8537	0.9785
15.568	0.8906
15.2925	0.9058
15.0265	1.0017
14.7697	1.0093
14.5214	1.0498
14.2814	1.1111
14.0492	1.1924
13.8244	1.2766
13.6067	1.3284
13.3957	1.3525
13.1912	1.3789
12.9929	1.4363
12.8004	1.3782
12.6135	1.478
12.432	1.4194
12.2557	1.5112
12.0843	1.5395
11.9176	1.5825
11.7555	1.6533
11.5977	1.6169
11.444	1.606
11.2944	1.5784
11.1487	1.6157
11.0067	1.6162
10.8682	1.5801
10.7332	1.5774
10.6015	1.6269
10.473	1.7141
10.3476	1.8137
10.2251	1.9502
10.1056	2.1006
9.98873	2.2869
9.87458	2.5
9.763	2.7117
9.65392	3.0117
9.54724	3.3923
9.44291	3.5928
9.34082	3.2803
9.24091	2.855
9.14312	2.677
9.04739	2.6155
8.95363	2.6296
8.8618	2.6365
8.77183	2.5935
8.68368	2.5361
8.59727	2.2551
8.51257	2.0947
8.42951	1.926
8.34807	1.4878
8.26819	0.8865
8.18981	0.4399
8.11292	0.3572
8.03745	0.4614
7.96337	0.6155
7.89064	0.7874
7.81924	0.9602
7.74911	1.158
7.68023	1.3579
7.61256	1.5234
7.54608	1.6865
7.48074	1.8452
7.41653	1.9912
7.35341	2.1072
7.29136	2.2185
7.23034	2.3459
7.17033	2.4429
7.11132	2.4995
7.05327	2.5593
6.99616	2.613
6.93996	2.7517
6.88467	2.8931
6.83024	3.0386
6.77667	3.1892
6.72393	3.2998
6.67201	3.3721
6.62089	3.4241
6.57054	3.4285
6.52095	3.457
6.4721	3.4358
6.42398	3.3474
6.37657	3.2134
6.32986	2.9707
6.28382	2.5762
6.23845	2.0686
6.19373	1.6457
6.14965	1.3975
6.10619	1.3218
6.06334	1.376
6.02109	1.5574
5.97942	1.8293
5.93832	2.1741
5.89778	2.5662
5.8578	2.9202
5.81835	3.1609
5.77943	3.3743
5.74103	3.5427
5.70314	3.6609
5.66574	3.7244
5.62883	3.7209
5.5924	3.6829
5.55644	3.6262
5.52093	3.593
5.48588	3.573
5.45127	3.6199
5.41709	3.6846
5.38334	3.7488
5.35	3.8267
5.31708	3.9856
5.28456	4.1575
5.25243	4.3393
5.2207	4.5229
5.18934	4.6731
5.15836	4.8318
5.12775	5.0049
5.09749	5.1902
5.0676	5.363
5.03805	5.5718
5.00884	5.7654
4.97998	5.9756
4.95144	6.1936
4.92322	6.3403
4.89533	6.51
4.86775	6.6345
4.84048	6.7297
4.81351	6.8113
4.78684	6.875
4.76047	6.9431
4.73439	7.0212
4.70859	7.0803
4.68306	7.1487
4.65782	7.239
4.63284	7.3213
4.60814	7.4126
4.58369	7.4844
4.5595	7.5708
4.53557	7.6426
4.51188	7.7117
4.48845	7.79
4.46525	7.8808
4.44229	7.9746
4.41957	8.0928
4.39708	8.2029
4.37481	8.333
4.35277	8.436
4.33096	8.5422
4.30935	8.6579
4.28797	8.769
4.26679	8.8928
4.24583	9.0188
4.22506	9.1133
4.2045	9.2356
4.18414	9.3542
4.16398	9.4621
4.14401	9.5637
4.12423	9.6618
4.10464	9.7624
4.08523	9.8547
4.066	9.9338
4.04696	10.0022
4.02809	10.0644
4.0094	10.114
3.99088	10.1496
3.97253	10.1865
3.95435	10.2092
3.93634	10.2107
3.91848	10.2019
3.90079	10.1948
3.88326	10.1692
3.86589	10.113
3.84867	10.0595
3.8316	9.9887
3.81468	9.9074
3.79791	9.8193
3.78129	9.7143
3.76482	9.604
3.74848	9.4604
3.73229	9.3208
3.71624	9.1738
3.70032	9.0122
3.68454	8.8608
3.6689	8.7246
3.65338	8.5859
3.638	8.4582
3.62275	8.3235
3.60762	8.1709
3.59262	7.9951
3.57775	7.7961
3.56299	7.5898
3.54836	7.3764
3.53385	7.1272
3.51945	6.8164
3.50517	6.4314
3.49101	6.4145
3.47696	6.2937
3.46303	6.116
3.4492	5.8733
3.43549	5.5994
3.42188	5.2129
3.40838	5.1089
3.39499	5.0603
3.38171	4.9062
3.36852	4.7639
3.35544	4.6228
3.34246	4.4497
3.32958	4.2671
3.3168	4.0945
3.30411	3.9302
3.29153	3.7446
3.27903	3.5859
3.26664	3.425
3.25433	3.2705
3.24212	3.1301
3.23	2.9792
3.21797	2.8315
3.20603	2.7119
3.19418	2.5723
3.18241	2.4592
3.17074	2.3413
3.15914	2.2146
3.14763	2.1221
3.13621	2.0134
3.12487	1.9321
3.11361	1.8484
3.10243	1.7788
3.09133	1.7241
3.0803	1.6919
3.06936	1.6587
3.0585	1.6282
3.04771	1.6133
3.037	1.5984
3.02636	1.5786
3.0158	1.5415
3.00531	1.5046
2.99489	1.4612
2.98454	1.4236
2.97427	1.3821
2.96407	1.3584
2.95393	1.3415
2.94387	1.3169
2.93387	1.3079
2.92394	1.2976
2.91408	1.29
2.90429	1.2978
2.89456	1.303
2.88489	1.2971
2.87529	1.292
2.86576	1.3003
2.85628	1.2878
2.84687	1.2978
2.83752	1.2698
2.82823	1.2273
2.81901	1.1323
2.80984	1.0561
2.80073	0.9712
2.79168	0.9111
2.78269	0.8323
2.77376	0.791
2.76488	0.7588
2.75606	0.7317
2.7473	0.7449
2.73859	0.7805
2.72994	0.8762
2.72134	1.0596
2.7128	1.3916
2.70431	1.7534
2.69587	2.6433
2.68748	4.009
2.67915	5.1816
2.67087	5.9695
2.66264	6.614
2.65446	7.0076
2.64633	7.2966
2.63825	7.5261
2.63021	7.6794
2.62223	7.8542
2.6143	7.956
2.60641	8.0547
2.59857	8.1887
2.59078	8.3281
2.58304	8.435
2.57534	8.5312
2.56768	8.6296
2.56008	8.7138
2.55251	8.7685
2.54499	8.8691
2.53752	8.9419
2.53009	8.9922
2.5227	9.019
2.51536	9.0344
2.50806	9.0693
2.5008	9.123
2.49358	9.1631
2.4864	9.2143
2.47927	9.2383
2.47218	9.2749
2.46512	9.2964
2.45811	9.3647
2.45114	9.3852
2.4442	9.393
2.43731	9.521
2.43045	9.709
2.42363	9.8843
2.41685	10.0468
2.41011	10.2187
2.40341	10.3047
2.39674	10.3628
2.39011	10.3857
2.38352	10.3906
2.37696	10.4062
2.37044	10.4282
2.36395	10.542
2.35751	10.5967
2.35109	10.667
2.34471	10.7573
2.33836	11.018
2.33205	11.226
2.32578	11.5219
2.31953	11.7946
2.31332	12
2.30714	12.1032
2.301	12.2082
2.29489	12.3066
2.28881	12.3278
2.28276	12.3772
2.27675	12.395
2.27076	12.2851
2.26481	12.0698
2.25889	11.8537
2.253	11.6526
2.24714	11.4758
2.24131	11.4092
2.23551	11.3525
2.22974	11.2214
2.224	11.0312
2.21829	10.9922
2.21261	10.9731
2.20696	11.0175
2.20134	11.2551
2.19574	11.5871
2.19018	11.8569
2.18464	12.1562
2.17913	12.5009
2.17365	12.8215
2.16819	13.1184
2.16277	13.4257
2.15737	13.6704
2.15199	13.8322
2.14665	13.8964
2.14133	14.0214
2.13603	14.0957
2.13077	14.1252
2.12552	14.1919
2.12031	14.1818
2.11512	14.2414
2.10995	14.2231
2.10481	14.2392
2.0997	14.3088
2.09461	14.4065
2.08954	14.4194
2.0845	14.4748
2.07948	14.468
