Name: Anorthosite
Type: Rocks
Class: Igneous
Subclass: Mafic
Particle Size: Solid
Sample No.: Anorthos.H1
Owner: JHU
Origin: from near Elizabethtown, Essex County, New York, via Ward's
Description: The hand sample consists of very dark gray large tabular
Measurement: Directional (10 degree) hemispherical reflectance
X Units: Wavelength (micrometers)
Y Units: Reflectance (percent)
wavelength	value
14.0112	2.0937
13.7147	3.1444
13.4304	3.4315
13.1577	2.7712
12.8959	2.939
12.6443	2.9367
12.4023	3.1966
12.1694	3.606
11.945	4.0837
11.7289	4.5054
11.5203	4.9704
11.3191	5.6051
11.1248	6.4345
10.937	7.3668
10.7555	7.7939
10.5799	8.028
10.4099	8.114
10.2454	8.6018
10.0859	9.3262
9.9313	9.7111
9.7814	9.0114
9.636	8.6535
9.4948	7.2166
9.3577	6.1956
9.2245	5.9556
9.095	6.134
8.9691	6.465
8.8467	6.5348
8.7275	6.554
8.6116	6.2254
8.4986	5.8816
8.3886	5.5036
8.2814	4.3535
8.1769	2.5797
8.075	1.7524
7.9756	1.5278
7.8786	1.4618
7.784	1.4941
7.6916	1.5628
7.6014	1.553
7.5133	1.646
7.4272	1.7154
7.343	1.7428
7.2607	1.7337
7.1803	1.8028
7.1016	2.0486
7.0246	2.1736
6.9493	2.1631
6.8755	2.179
6.8034	2.2158
6.7327	2.3083
6.6634	2.4206
6.5956	2.4517
6.5292	2.4846
6.464	2.3883
6.4002	2.2898
6.3376	2.1075
6.2762	2.046
6.216	1.9917
6.157	1.9589
6.099	1.9732
6.0421	1.9802
5.9863	1.968
5.9315	2.0437
5.8777	2.1057
5.8249	2.221
5.773	2.2613
5.722	2.3096
5.6719	2.3813
5.6227	2.4356
5.5744	2.4028
5.5268	2.5842
5.4801	2.6782
5.4341	2.7701
5.3889	2.8797
5.3445	2.9712
5.3008	3.0539
5.2578	3.1374
5.2154	3.2675
5.1738	3.4013
5.1328	3.5756
5.0925	3.7556
5.0528	3.9729
5.0137	4.1564
4.9752	4.3088
4.9373	4.4135
4.9	4.5255
4.8632	4.6613
4.827	4.782
4.7913	4.8766
4.7561	4.9685
4.7215	5.1202
4.6873	5.2605
4.6536	5.4712
4.6205	5.692
4.5877	5.9493
4.5555	6.2067
4.5237	6.3551
4.4923	6.4109
4.4614	6.5995
4.4309	7.0322
4.4008	7.5825
4.3711	8.0102
4.3418	8.32
4.3129	8.5924
4.2844	8.8132
4.2563	9.0155
4.2285	9.1982
4.2011	9.3571
4.174	9.467
4.1473	9.5067
4.1209	9.5369
4.0949	9.5285
4.0692	9.4837
4.0438	9.3581
4.0187	9.1394
3.994	8.5769
3.9695	8.4733
3.9453	8.7972
3.9214	8.9486
3.8979	8.9724
3.8746	8.9524
3.8515	8.8948
3.8288	8.9751
3.8063	8.9995
3.7841	8.995
3.7621	8.9168
3.7404	8.82
3.7189	8.6843
3.6977	8.5478
3.6767	8.3749
3.656	8.2847
3.6355	8.119
3.6152	8.0013
3.5951	7.8459
3.5753	7.6662
3.5557	7.5274
3.5363	7.2652
3.5171	6.8772
3.4981	6.4329
3.4793	6.4188
3.4607	6.3977
3.4423	6.0876
3.4241	5.5922
3.4061	5.681
3.3883	5.7647
3.3707	5.7467
3.3533	5.7874
3.336	5.8701
3.3189	5.8134
3.302	5.7345
3.2853	5.6686
3.2687	5.6149
3.2523	5.5114
3.2361	5.4063
3.22	5.2696
3.204	5.133
3.1883	5.0168
3.1727	4.89
3.1572	4.8443
3.1419	4.7719
3.1268	4.7615
3.1117	4.7416
3.0969	4.7198
3.0821	4.6598
3.0675	4.6667
3.0531	4.6158
3.0388	4.6322
3.0246	4.5708
3.0105	4.5108
2.9966	4.5127
2.9828	4.4028
2.9692	4.3265
2.9556	4.2732
2.9422	4.2579
2.9289	4.2872
2.9157	4.3976
2.9027	4.4364
2.8897	4.5569
2.8769	4.6507
2.8642	4.6831
2.8516	4.6322
2.8391	4.6932
2.8267	4.773
2.8144	4.859
2.8022	4.9284
2.7902	4.9528
2.7782	4.7777
2.7664	4.608
2.7546	4.5176
2.7429	4.7341
2.7314	5.0714
2.7199	6.027
2.7085	7.6859
2.6973	9.0363
2.6861	9.7935
2.675	10.2785
2.664	10.5841
2.6531	10.8684
2.6423	10.9469
2.6315	11.1563
2.6209	11.1483
2.6103	11.1581
2.5999	11.2033
2.5895	11.3665
2.5792	11.4131
2.569	11.4607
2.5588	11.4797
2.5487	11.5387
2.5388	11.6137
2.5289	11.6561
2.519	11.6163
2.5093	11.5964
2.4996	11.6308
2.49	11.7023
2.4805	11.7937
2.471	11.8247
2.4616	11.8134
2.4523	11.8272
2.4431	11.8087
2.4339	11.8577
2.4248	11.9121
2.4157	11.9538
2.4068	11.9327
2.3979	11.9709
2.389	11.8572
2.3802	11.7846
2.3715	11.6484
2.3629	11.4182
2.3543	11.1799
2.3458	11.1543
2.3373	11.0002
2.3289	11.3205
2.3206	11.58
2.3123	11.9198
2.3041	12.2098
2.2959	12.2566
2.2878	12.2779
2.2798	12.4769
2.2718	12.4561
2.2638	12.4312
2.2559	12.4293
2.2481	12.588
2.2403	12.827
2.2326	12.9302
2.225	12.9883
2.2173	13.0924
2.2098	12.94
2.2023	13.0052
2.1948	13.1742
2.1874	13.3561
2.18	13.5851
2.1727	13.889
2.1655	14.0772
2.1583	14.3189
2.1511	14.5347
2.144	14.5184
2.1369	14.5668
2.1299	14.6646
2.1229	14.5952
2.116	14.6135
2.1091	14.8223
2.1023	14.8331
2.0955	14.8504
2.0887	14.879
2.082	14.8256
2.06	14.9886
2.028	14.8855
1.996	14.5402
1.964	14.1994
1.932	14.0764
1.9	13.8699
1.868	14.9346
1.836	15.1196
1.804	15.2461
1.772	14.9897
1.74	14.959
1.708	14.9244
1.676	15.0333
1.644	15.179
1.612	15.1181
1.58	15.1597
1.548	15.0464
1.516	14.6424
1.484	14.3571
1.452	14.2639
1.42	13.8102
1.388	13.6748
1.356	14.3653
1.324	14.375
1.292	13.9927
1.26	13.8918
1.228	13.7588
1.196	13.5281
1.164	13.5577
1.132	13.673
1.1	13.5626
1.068	13.6508
1.036	13.8915
1.004	14.1039
0.972	14.4062
0.94	14.7174
0.908	14.948
0.876	15.0094
0.844	15.2208
0.812	15.4471
0.795	15.7897
0.787	15.7565
0.779	15.7838
0.771	15.6617
0.763	15.7409
0.755	15.9541
0.747	15.7314
0.739	15.7205
0.731	15.5585
0.723	15.6643
0.715	15.3212
0.707	15.5621
0.699	15.1947
0.691	15.0486
0.683	14.961
0.675	15.1331
0.667	15.2936
0.659	15.3103
0.651	15.3546
0.643	15.6212
0.635	15.7428
0.627	15.9105
0.619	15.7844
0.611	16.0956
0.603	16.2173
0.595	16.4856
0.587	16.8043
0.579	17.079
0.571	16.9634
0.563	17.197
0.555	17.0386
0.547	17.0171
0.539	17.0716
0.531	16.7972
0.523	16.9419
0.515	16.8653
0.507	16.873
0.499	16.3347
0.491	16.1661
0.483	16.2243
0.475	15.9652
0.467	15.9356
0.459	16.1274
0.451	16.1729
0.443	16.1453
0.435	15.6547
0.427	15.7544
0.419	15.5089
0.411	15.4548
0.403	15.5921
