Name: Muscovite KAl2(Si3Al)O10(OH,F)2
Type: Mineral
Class: Silicates
Subclass: Phyllosilicates (Sheet Silicates); (MicaGroup)
Particle Size: Fine (Less than 2 Micrometers)
Sample No.: muscov.2
Owner: JHU
Wavelength Range: IR
Origin: Fremont Co., Colorado via Hunt and Salisbury Collection #146B
Description: The hand sample appeared to be pure, transparent
Measurement: Transmission
X Units: Wavelength (micrometers)
Y Units: Transmittance (percent)
wavelength	value
25.0442	59.9764
24.3388	55.3124
23.6719	51.5663
23.0407	51.7108
22.4422	49.7928
21.8741	41.7499
21.334	34.6894
20.8199	32.2362
20.33	42.4667
19.8627	45.3104
19.4163	40.4491
18.9896	35.5399
18.5812	36.8134
18.19	42.1991
17.815	48.9227
17.4551	55.4461
17.1094	59.8026
16.7772	63.6141
16.4576	65.8407
16.15	67.6209
15.8537	68.9686
15.568	70.2899
15.2925	71.0086
15.0265	70.409
14.7697	69.1561
14.5214	67.9246
14.2814	67.1776
14.0492	67.4324
13.8244	67.4744
13.6067	67.0819
13.3957	65.9515
13.1912	67.848
12.9929	70.637
12.8004	69.0076
12.6135	70.1312
12.432	70.1932
12.2557	74.3768
12.0843	73.1683
11.9176	75.1292
11.7555	73.3709
11.5977	69.6702
11.444	64.7113
11.2944	63.0589
11.1487	60.6746
11.0067	56.2113
10.8682	52.7303
10.7332	50.1815
10.6015	48.2777
10.473	43.8207
10.3476	35.2743
10.2251	24.8559
10.1056	17.8281
9.98873	14.4375
9.87458	12.5322
9.763	11.3252
9.65392	11.7251
9.54724	16.0703
9.44291	19.2895
9.34082	20.165
9.24091	21.2563
9.14312	25.1235
9.04739	30.2782
8.95363	35.5531
8.8618	41.4218
8.77183	47.0824
8.68368	52.6566
8.59727	56.9808
8.51257	61.8631
8.42951	66.8192
8.34807	71.9207
8.26819	77.0613
8.18981	80.9451
8.11292	83.127
8.03745	84.5596
7.96337	85.5752
7.89064	86.3845
7.81924	87.0537
7.74911	87.5498
7.68023	88.0391
7.61256	88.3281
7.54608	88.5244
7.48074	88.5056
7.41653	88.3496
7.35341	87.8064
7.29136	87.0593
7.23034	86.1389
7.17033	84.8272
7.11132	83.2481
7.05327	81.5047
6.99616	80.4236
6.93996	80.0811
6.88467	80.1358
6.83024	80.8562
6.77667	82.1641
6.72393	83.5108
6.67201	84.6133
6.62089	85.3574
6.57054	85.9873
6.52095	86.4588
6.4721	87.0838
6.42398	87.6697
6.37657	88.072
6.32986	88.2215
6.28382	88.2312
6.23845	88.0508
6.19373	87.5938
6.14965	86.5115
6.10619	86.4715
6.06334	86.7637
6.02109	87.1199
5.97942	88.2771
5.93832	89.6084
5.89778	90.7754
5.8578	91.5545
5.81835	92.1963
5.77943	92.5427
5.74103	92.8152
5.70314	92.9404
5.66574	92.9981
5.62883	93.0742
5.5924	93.0418
5.55644	93.0671
5.52093	93.2305
5.48588	93.3201
5.45127	93.4629
5.41709	93.5537
5.38334	93.4998
5.35	93.4802
5.31708	93.5847
5.28456	93.7627
5.25243	93.8857
5.2207	94.0332
5.18934	94.1199
5.15836	94.1956
5.12775	94.2927
5.09749	94.3193
5.0676	94.2888
5.03805	94.325
5.00884	94.3328
4.97998	94.3162
4.95144	94.3884
4.92322	94.428
4.89533	94.4509
4.86775	94.47
4.84048	94.4753
4.81351	94.53
4.78684	94.5339
4.76047	94.4846
4.73439	94.4851
4.70859	94.4358
4.68306	94.5183
4.65782	94.5115
4.63284	94.5393
4.60814	94.5652
4.58369	94.5691
4.5595	94.6501
4.53557	94.6018
4.51188	94.571
4.48845	94.5818
4.46525	94.5369
4.44229	94.5486
4.41957	94.5422
4.39708	94.5393
4.37481	94.5354
4.35277	94.5881
4.33096	94.5525
4.30935	94.5393
4.28797	94.5242
4.26679	94.4661
4.24583	94.4988
4.22506	94.4959
4.2045	94.4763
4.18414	94.4651
4.16398	94.5247
4.14401	94.4749
4.12423	94.5017
4.10464	94.4299
4.08523	94.4251
4.066	94.4202
4.04696	94.4246
4.02809	94.4832
4.0094	94.3967
3.99088	94.3523
3.97253	94.3884
3.95435	94.4285
3.93634	94.4553
3.91848	94.4959
3.90079	94.4509
3.88326	94.4255
3.86589	94.3562
3.84867	94.3425
3.8316	94.2932
3.81468	94.325
3.79791	94.2498
3.78129	94.2019
3.76482	94.1091
3.74848	93.9944
3.73229	93.9119
3.71624	93.825
3.70032	93.6838
3.68454	93.5432
3.6689	93.4832
3.65338	93.365
3.638	93.26
3.62275	93.0764
3.60762	92.9143
3.59262	92.8328
3.57775	92.6873
3.56299	92.5081
3.54836	92.346
3.53385	92.0881
3.51945	91.8093
3.50517	91.3474
3.49101	91.2385
3.47696	91.0115
3.46303	90.8904
3.4492	90.6179
3.43549	90.2229
3.42188	89.7639
3.40838	89.4768
3.39499	89.553
3.38171	89.4451
3.36852	89.3323
3.35544	89.0491
3.34246	88.7757
3.32958	88.5554
3.3168	88.2908
3.30411	88.0296
3.29153	87.7366
3.27903	87.4319
3.26664	87.1228
3.25433	86.6951
3.24212	86.3045
3.23	85.9138
3.21797	85.4886
3.20603	85.1404
3.19418	84.6331
3.18241	84.2771
3.17074	83.8435
3.15914	83.284
3.14763	82.7781
3.13621	82.2215
3.12487	81.8787
3.11361	81.4275
3.10243	80.9099
3.09133	80.5359
3.0803	80.0769
3.06936	79.7576
3.0585	79.2107
3.04771	78.823
3.037	78.4041
3.02636	77.9959
3.0158	77.6014
3.00531	77.1336
2.99489	76.6932
2.98454	76.5242
2.97427	76.1883
2.96407	76.1531
2.95393	75.8455
2.94387	75.8836
2.93387	75.7225
2.92394	75.5047
2.91408	75.6102
2.90429	75.8016
2.89456	75.8904
2.88489	76.033
2.87529	76.1639
2.86576	76.3875
2.85628	76.8982
2.84687	77.4812
2.83752	78.0447
2.82823	78.533
2.81901	79.075
2.80984	79.3221
2.80073	79.157
2.79168	78.4109
2.78269	77.2078
2.77376	76.283
2.76488	75.5164
2.75606	76.6326
2.7473	79.8562
2.73859	83.4734
2.72994	86.7312
2.72134	89.5037
2.7128	91.1736
2.70431	92.3474
2.69587	93.0398
2.68748	93.5085
2.67915	93.6648
2.67087	93.8445
2.66264	93.7595
2.65446	93.8025
2.64633	93.7849
2.63825	93.9158
2.63021	93.9451
2.62223	93.8162
2.6143	93.8132
2.60641	93.9226
2.59857	93.9734
2.59078	93.988
2.58304	94.1599
2.57534	93.9773
2.56768	93.9236
2.56008	93.7693
2.55251	93.8689
2.54499	93.9412
2.53752	93.99
2.53009	93.7361
2.5227	93.5017
2.51536	93.7888
2.50806	93.738
2.5008	93.6716
2.49358	93.7576
2.4864	93.8494
2.47927	93.7302
2.47218	93.6462
2.46512	93.5193
2.45811	93.6072
2.45114	93.7459
2.4442	93.5037
2.43731	93.6013
2.43045	93.449
2.42363	93.5408
2.41685	93.533
2.41011	93.7419
2.40341	93.6658
2.39674	93.6326
2.39011	93.697
2.38352	93.3474
2.37696	93.5232
2.37044	93.3201
2.36395	93.4548
2.35751	93.5877
2.35109	93.4177
2.34471	93.4998
2.33836	93.4802
2.33205	93.2361
2.32578	93.2498
2.31953	93.4548
2.31332	93.5701
2.30714	93.3123
2.301	93.4412
2.29489	93.4451
2.28881	93.3064
2.28276	93.3709
2.27675	93.6033
2.27076	93.5076
2.26481	93.6248
2.25889	93.4529
2.253	93.6189
2.24714	93.572
2.24131	93.5095
2.23551	93.408
2.22974	93.4685
2.224	93.3357
2.21829	93.5017
2.21261	93.6716
2.20696	93.4841
2.20134	93.4236
2.19574	93.4255
2.19018	93.7673
2.18464	93.7048
2.17913	93.4705
2.17365	93.7048
2.16819	93.9607
2.16277	94.2263
2.15737	93.9998
2.15199	93.6326
2.14665	93.8162
2.14133	93.8357
2.13603	93.9568
2.13077	93.7459
2.12552	94.0271
2.12031	94.1091
2.11512	94.1912
2.10995	93.9451
2.10481	93.9724
2.0997	94.4412
2.09461	94.2654
2.08954	94.2185
2.0845	94.4841
2.07948	94.3474
