Name: Basaltic Andesite
Type: Rocks
Class: Igneous
Subclass: Intermediate
Particle Size: 0-75 micrometers
Sample No.: Andesite.H4
Owner: JHU
Origin: Agrigan Volcano, Mariana Is., via Smithsonian (Cat. No: NMNH
Description: A dark gray, porphyritic and vuggy rock.  The phenocrysts are
Measurement: Directional (10 degree) hemispherical reflectance
X Units: Wavelength (micrometers)
Y Units: Reflectance (percent)
wavelength	value
14.011	0.0619
13.715	0.9947
13.43	1.9164
13.158	1.3982
12.896	1.8722
12.644	2.1694
12.402	2.9508
12.169	4.2891
11.945	4.0772
11.729	3.6804
11.52	3.6394
11.319	3.4753
11.125	3.2691
10.937	3.1596
10.755	3.1549
10.58	2.9564
10.41	2.9381
10.245	2.7204
10.086	2.779
9.9313	2.7358
9.7814	2.6771
9.636	2.5945
9.4948	2.3749
9.3577	2.4649
9.2245	2.6241
9.095	2.7996
8.9691	2.7485
8.8467	2.6356
8.7275	2.5514
8.6116	2.4928
8.4986	2.5205
8.3886	2.333
8.2814	2.2692
8.1769	2.0395
8.075	1.9135
7.9756	2.0862
7.8786	2.388
7.784	2.6784
7.6916	3.0748
7.6014	3.4605
7.5133	3.9077
7.4272	4.3387
7.343	4.8473
7.2607	5.295
7.1803	5.7377
7.1016	6.1376
7.0246	6.5086
6.9493	6.8299
6.8755	7.1709
6.8034	7.4171
6.7327	7.661
6.6634	7.7587
6.5956	7.9192
6.5292	8.0941
6.464	8.281
6.4002	8.3803
6.3376	8.3995
6.2762	8.3514
6.216	8.2755
6.157	8.2067
6.099	8.4802
6.0421	8.7813
5.9863	9.18
5.9315	9.6164
5.8777	10.001
5.8249	10.366
5.773	10.634
5.722	10.875
5.6719	11.055
5.6227	11.273
5.5744	11.555
5.5268	11.819
5.4801	12.077
5.4341	12.239
5.3889	12.328
5.3445	12.206
5.3008	12.483
5.2578	13.004
5.2154	13.666
5.1738	14.166
5.1328	14.519
5.0925	14.829
5.0528	15.05
5.0137	15.29
4.9752	15.597
4.9373	15.974
4.9	16.47
4.8632	16.826
4.827	17.143
4.7913	17.344
4.7561	17.575
4.7215	17.824
4.6873	18.039
4.6536	18.278
4.6205	18.539
4.5877	18.771
4.5555	18.967
4.5237	19.17
4.4923	19.316
4.4614	19.487
4.4309	19.588
4.4008	19.663
4.3711	19.786
4.3418	19.91
4.3129	20.059
4.2844	20.223
4.2563	20.318
4.2285	20.417
4.2011	20.478
4.174	20.571
4.1473	20.618
4.1209	20.702
4.0949	20.726
4.0692	20.816
4.0438	20.871
4.0187	20.914
3.994	20.957
3.9695	20.998
3.9453	21.055
3.9214	21.077
3.8979	21.15
3.8746	21.199
3.8515	21.227
3.8288	21.266
3.8063	21.268
3.7841	21.343
3.7621	21.351
3.7404	21.376
3.7189	21.376
3.6977	21.428
3.6767	21.422
3.656	21.447
3.6355	21.465
3.6152	21.486
3.5951	21.45
3.5753	21.475
3.5557	21.479
3.5363	21.492
3.5171	21.517
3.4981	21.537
3.4793	21.493
3.4607	21.51
3.4423	21.51
3.4241	21.488
3.4061	21.407
3.3883	21.414
3.3707	21.397
3.3533	21.352
3.336	21.333
3.3189	21.3
3.302	21.21
3.2853	21.18
3.2687	21.136
3.2523	21.074
3.2361	21.02
3.22	21.013
3.204	20.915
3.1883	20.842
3.1727	20.78
3.1572	20.73
3.1419	20.622
3.1268	20.566
3.1117	20.478
3.0969	20.4
3.0821	20.389
3.0675	20.318
3.0531	20.272
3.0388	20.289
3.0246	20.187
3.0105	20.158
2.9966	20.038
2.9828	19.97
2.9692	19.921
2.9556	19.862
2.9422	19.809
2.9289	19.826
2.9157	19.826
2.9027	19.727
2.8897	19.774
2.8769	19.791
2.8642	19.721
2.8516	19.754
2.8391	19.685
2.8267	19.674
2.8144	19.654
2.8022	19.691
2.7902	19.635
2.7782	19.74
2.7664	19.851
2.7546	19.905
2.7429	20.102
2.7314	20.477
2.7199	20.904
2.7085	21.414
2.6973	21.612
2.6861	21.638
2.675	21.753
2.664	21.762
2.6531	21.818
2.6423	21.774
2.6315	21.772
2.6209	21.758
2.6103	21.707
2.5999	21.697
2.5895	21.609
2.5792	21.603
2.569	21.531
2.5588	21.577
2.5487	21.5
2.5388	21.443
2.5289	21.593
2.519	21.499
2.5093	21.456
2.4996	21.306
2.49	21.365
2.4805	21.364
2.471	21.306
2.4616	21.28
2.4523	21.295
2.4431	21.261
2.4339	21.192
2.4248	21.094
2.4157	21.141
2.4068	21.122
2.3979	21.129
2.389	21.048
2.3802	21.1
2.3715	20.973
2.3629	20.982
2.3543	21.038
2.3458	20.933
2.3373	20.982
2.3289	20.903
2.3206	20.951
2.3123	21.013
2.3041	20.944
2.2959	20.932
2.2878	20.922
2.2798	20.886
2.2718	20.967
2.2638	20.851
2.2559	20.956
2.2481	20.961
2.2403	20.939
2.2326	20.963
2.225	20.941
2.2173	21.064
2.2098	21.041
2.2023	21.081
2.1948	21.117
2.1874	21.049
2.18	21.086
2.1727	21.068
2.1655	21.164
2.1583	21.23
2.1511	21.249
2.144	21.223
2.1369	21.314
2.1299	21.451
2.1229	21.398
2.116	21.352
2.1091	21.379
2.1023	21.494
2.0955	21.526
2.0887	21.541
2.082	21.542
2.06	21.525
2.028	21.704
1.996	21.515
1.964	21.476
1.932	21.45
1.9	21.606
1.868	21.515
1.836	21.872
1.804	21.773
1.772	21.792
1.74	22.061
1.708	22.015
1.676	22.214
1.644	22.211
1.612	22.206
1.58	22.114
1.548	22.246
1.516	22.209
1.484	21.941
1.452	22.149
1.42	22.093
1.388	21.92
1.356	22.216
1.324	21.911
1.292	21.938
1.26	21.939
1.228	22.039
1.196	21.993
1.164	21.884
1.132	21.997
1.1	21.386
1.068	21.079
1.036	20.185
1.004	19.9
0.972	19.645
0.94	19.915
0.908	20.556
0.876	21.155
0.844	21.72
0.812	22.162
0.795	22.054
0.787	22.1
0.779	22.134
0.771	22.141
0.763	22.365
0.755	22.013
0.747	22.163
0.739	22.283
0.731	22.101
0.723	22.562
0.715	22.09
0.707	22.301
0.699	22.015
0.691	22.254
0.683	22.233
0.675	22.321
0.667	22.199
0.659	22.023
0.651	22.178
0.643	22.022
0.635	21.945
0.627	21.934
0.619	21.878
0.611	21.956
0.603	21.867
0.595	21.832
0.587	21.798
0.579	21.417
0.571	21.634
0.563	21.064
0.555	21.155
0.547	20.593
0.539	20.522
0.531	20.31
0.523	20.091
0.515	19.996
0.507	19.764
0.499	19.921
0.491	19.804
0.483	19.531
0.475	19.223
0.467	19.243
0.459	19.074
0.451	19.031
0.443	18.766
0.435	18.816
0.427	18.654
0.419	18.087
0.411	17.929
0.403	17.656
