Name: Kyanite Al2SiO5
Type: Mineral
Class: Silicates
Subclass: Nesosilicates (Isolated Tetrahedra); (Al2SiO5 Group)
Particle Size: Fine  (Less than 2 Micrometers)
Sample No.: kyanite.1
Owner: JHU
Wavelength Range: IR
Origin: Brazil (?) via the Smithsonian (sample no. NMNH 139740)
Description: The sample consisted of two blue crystals, each about 1.5
Measurement: Transmission
X Units: Wavelength (micrometers)
Y Units: Transmittance (percent)
wavelength	value
25.0442	56.6444
24.3388	62.0643
23.6719	52.203
23.0407	32.1962
22.4422	26.9423
21.8741	18.5937
21.334	16.8837
20.8199	37.3026
20.33	32.7636
19.8627	28.6132
19.4163	31.3891
18.9896	39.934
18.5812	43.9203
18.19	34.2192
17.815	39.0746
17.4551	31.1117
17.1094	19.8378
16.7772	15.5473
16.4576	9.8208
16.15	10.2744
15.8537	12.5771
15.568	10.0771
15.2925	12.0576
15.0265	14.3564
14.7697	12.8911
14.5214	16.7973
14.2814	19.872
14.0492	20.4536
13.8244	21.4338
13.6067	23.8144
13.3957	31.7021
13.1912	37.0009
12.9929	40.0705
12.8004	41.8212
12.6135	43.5079
12.432	45.3783
12.2557	48.1644
12.0843	51.6952
11.9176	55.4413
11.7555	57.9247
11.5977	57.8236
11.444	52.0284
11.2944	43.8859
11.1487	37.2355
11.0067	40.6298
10.8682	36.8283
10.7332	24.7538
10.6015	20.5288
10.473	22.5981
10.3476	25.2746
10.2251	28.8766
10.1056	27.9992
9.98873	26.7363
9.87458	31.1437
9.763	33.976
9.65392	31.6632
9.54724	37.9162
9.44291	48.1498
9.34082	54.1068
9.24091	57.847
9.14312	60.9666
9.04739	63.6551
8.95363	66.3787
8.8618	69.0382
8.77183	71.2059
8.68368	72.8243
8.59727	74.5403
8.51257	76.5423
8.42951	78.4202
8.34807	79.7078
8.26819	81.0037
8.18981	82.1258
8.11292	82.7737
8.03745	83.2207
7.96337	83.523
7.89064	83.7622
7.81924	84.8079
7.74911	85.1311
7.68023	85.3611
7.61256	85.5613
7.54608	85.8191
7.48074	85.9622
7.41653	86.1131
7.35341	86.1638
7.29136	86.2566
7.23034	86.1829
7.17033	86.7986
7.11132	86.7259
7.05327	86.6834
6.99616	86.8103
6.93996	87.138
6.88467	87.1453
6.83024	87.2698
6.77667	87.6931
6.72393	87.9509
6.67201	88.1253
6.62089	88.179
6.57054	88.3435
6.52095	88.3628
6.4721	88.3484
6.42398	88.3723
6.37657	88.1892
6.32986	88.0081
6.28382	87.7185
6.23845	87.3406
6.19373	86.7576
6.14965	85.8064
6.10619	85.8284
6.06334	86.2903
6.02109	87.2239
5.97942	88.4241
5.93832	88.658
5.89778	88.78
5.8578	88.9822
5.81835	89.3538
5.77943	89.3645
5.74103	89.5293
5.70314	89.5823
5.66574	89.5715
5.62883	89.5061
5.5924	89.4463
5.55644	89.4216
5.52093	89.4173
5.48588	89.3606
5.45127	89.4119
5.41709	89.4876
5.38334	89.4251
5.35	89.4558
5.31708	89.4207
5.28456	89.4148
5.25243	89.4221
5.2207	89.3953
5.18934	89.4397
5.15836	89.3958
5.12775	89.4046
5.09749	89.4021
5.0676	89.386
5.03805	89.4771
5.00884	89.5078
4.97998	89.4451
4.95144	89.4851
4.92322	89.3967
4.89533	89.4141
4.86775	89.4002
4.84048	89.3445
4.81351	89.4314
4.78684	89.3916
4.76047	89.3887
4.73439	89.3211
4.70859	89.3489
4.68306	89.3469
4.65782	89.3123
4.63284	89.3145
4.60814	89.4368
4.58369	89.2927
4.5595	89.2195
4.53557	89.2505
4.51188	89.1541
4.48845	89.1677
4.46525	89.0574
4.44229	89.0642
4.41957	89.095
4.39708	89.0095
4.37481	88.9959
4.35277	88.9329
4.33096	88.9243
4.30935	88.8543
4.28797	88.8945
4.26679	88.7522
4.24583	88.7703
4.22506	88.7195
4.2045	88.6743
4.18414	88.6712
4.16398	88.5862
4.14401	88.5076
4.12423	88.4939
4.10464	88.4968
4.08523	88.377
4.066	88.3701
4.04696	88.3106
4.02809	88.3145
4.0094	88.3018
3.99088	88.2371
3.97253	88.1572
3.95435	88.138
3.93634	88.1614
3.91848	88.1514
3.90079	88.055
3.88326	88.0315
3.86589	87.9026
3.84867	87.9365
3.8316	87.9102
3.81468	87.875
3.79791	87.7725
3.78129	87.762
3.76482	87.6565
3.74848	87.5977
3.73229	87.5208
3.71624	87.4568
3.70032	87.3787
3.68454	87.333
3.6689	87.1951
3.65338	87.1717
3.638	87.1389
3.62275	86.969
3.60762	86.8848
3.59262	86.8479
3.57775	86.7879
3.56299	86.6133
3.54836	86.5086
3.53385	86.3303
3.51945	86.002
3.50517	85.5349
3.49101	85.4922
3.47696	85.3094
3.46303	85.2249
3.4492	85.0144
3.43549	84.6963
3.42188	84.304
3.40838	84.3201
3.39499	84.6182
3.38171	84.6277
3.36852	84.8445
3.35544	85.1035
3.34246	85.1258
3.32958	85.1045
3.3168	85.0418
3.30411	84.9883
3.29153	84.8089
3.27903	84.6065
3.26664	84.6172
3.25433	84.5186
3.24212	84.4261
3.23	84.1136
3.21797	84.1082
3.20603	83.9051
3.19418	83.8133
3.18241	83.6433
3.17074	83.3113
3.15914	82.9983
3.14763	82.7176
3.13621	82.4187
3.12487	82.0413
3.11361	81.7478
3.10243	81.3557
3.09133	80.7801
3.0803	80.346
3.06936	79.971
3.0585	79.4651
3.04771	79.2068
3.037	78.8279
3.02636	78.4578
3.0158	77.9822
3.00531	77.2996
2.99489	76.6687
2.98454	76.0296
2.97427	75.1858
2.96407	74.4529
2.95393	73.6722
2.94387	73.1678
2.93387	72.7811
2.92394	72.4847
2.91408	72.4559
2.90429	72.4803
2.89456	72.5936
2.88489	72.9476
2.87529	73.0447
2.86576	73.3221
2.85628	73.8089
2.84687	74.1839
2.83752	74.8826
2.82823	75.5223
2.81901	76.742
2.80984	77.4939
2.80073	78.2439
2.79168	79.0042
2.78269	79.7522
2.77376	80.5164
2.76488	81.0257
2.75606	81.8142
2.7473	82.1897
2.73859	82.7068
2.72994	83.0115
2.72134	83.0017
2.7128	83.1936
2.70431	83.3128
2.69587	83.7249
2.68748	84.0335
2.67915	84.0686
2.67087	84.1931
2.66264	83.93
2.65446	83.9261
2.64633	83.9339
2.63825	83.8064
2.63021	83.9534
2.62223	83.8221
2.6143	83.7947
2.60641	83.8181
2.59857	83.6619
2.59078	83.6482
2.58304	83.7273
2.57534	83.366
2.56768	83.5213
2.56008	83.4178
2.55251	83.2234
2.54499	83.1219
2.53752	83.3562
2.53009	83.2781
2.5227	82.9422
2.51536	82.9744
2.50806	83.0291
2.5008	82.9734
2.49358	82.9178
2.4864	82.8133
2.47927	82.7527
2.47218	82.781
2.46512	82.658
2.45811	82.7508
2.45114	82.7322
2.4442	82.5115
2.43731	82.5877
2.43045	82.4109
2.42363	82.4265
2.41685	82.5174
2.41011	82.5349
2.40341	82.4529
2.39674	82.2166
2.39011	82.2078
2.38352	82.1072
2.37696	82.1209
2.37044	82.2195
2.36395	82.0467
2.35751	82.0203
2.35109	82.2107
2.34471	82.0242
2.33836	81.7976
2.33205	81.782
2.32578	81.7889
2.31953	81.8787
2.31332	81.4959
2.30714	81.5935
2.301	81.868
2.29489	81.6834
2.28881	81.3982
2.28276	81.6726
2.27675	81.2967
2.27076	81.3826
2.26481	81.5857
2.25889	81.5232
2.253	81.5506
2.24714	81.3221
2.24131	81.0428
2.23551	81.2185
2.22974	81.4139
2.224	81.0135
2.21829	81.0349
2.21261	81.1697
2.20696	81.1346
2.20134	80.9295
2.19574	80.7849
2.19018	80.8924
2.18464	80.9666
2.17913	80.6736
2.17365	80.7361
2.16819	81.0721
2.16277	81.0193
2.15737	80.6248
2.15199	80.6404
2.14665	80.5232
2.14133	80.117
2.13603	80.6111
2.13077	80.99
2.12552	80.3299
2.12031	80.4139
2.11512	80.4002
2.10995	80.406
2.10481	80.4021
2.0997	80.7576
2.09461	80.6424
2.08954	80.1131
2.0845	80.1209
2.07948	80.1795
