Name: Gypsum (alabaster) CaSO4.2H20
Type: Mineral
Class: Sulfates
Particle Size: Fine  (Less than 2 Micrometers)
Sample No.: gypsum.1
Owner: JHU
Wavelength Range: IR
Origin: Pomaia, Italy via Hunt and Salisbury Collection #26B
Description: The sample was white, translucent, and appeared pure,
Measurement: Transmission
X Units: Wavelength (micrometers)
Y Units: Transmittance (percent)
wavelength	value
25.044	87.8357
24.339	86.656
23.672	85.7068
23.041	86.9529
22.442	86.7771
21.874	86.8435
21.334	87.9646
20.82	88.7576
20.33	89.5525
19.863	90.8259
19.416	90.6755
18.99	91.0203
18.581	91.8601
18.19	92.7156
17.815	93.4109
17.455	92.8513
17.109	89.3279
16.777	55.1883
16.458	74.201
16.15	84.697
15.854	82.9314
15.568	91.4461
15.292	84.5857
15.027	54.5838
14.77	83.2058
14.521	92.3347
14.281	93.1609
14.049	93.2859
13.824	94.1365
13.607	94.3611
13.396	94.4529
13.191	94.5588
12.993	94.6389
12.8	94.2654
12.614	94.6194
12.432	94.5115
12.256	94.7151
12.084	94.9202
11.918	95.0022
11.755	94.9119
11.598	94.9885
11.444	94.7927
11.294	94.9802
11.149	95.2815
11.007	95.967
10.868	96.3582
10.733	96.637
10.602	97.1604
10.473	97.4475
10.348	96.6609
10.225	94.7234
10.106	91.8836
9.989	88.8967
9.875	84.3025
9.763	88.1194
9.654	86.7991
9.547	84.9495
9.443	81.6785
9.341	75.1111
9.241	58.9559
9.143	28.4911
9.047	34.8524
8.954	15.9912
8.862	14.663
8.772	16.0551
8.684	5.4692
8.597	8.1435
8.513	15.0673
8.43	29.0639
8.348	50.2352
8.268	63.0391
8.19	73.1033
8.113	81.2527
8.037	85.7805
7.963	88.2918
7.891	89.9861
7.819	91.0173
7.749	91.8711
7.68	92.5613
7.613	93.0986
7.546	93.6758
7.481	94.0896
7.417	94.4275
7.353	94.6834
7.291	94.8787
7.23	95.0012
7.17	95.1836
7.111	95.3181
7.053	95.502
6.996	95.5598
6.94	95.698
6.885	95.8076
6.83	95.9749
6.777	96.199
6.724	96.4219
6.672	96.5056
6.621	96.4932
6.571	96.5515
6.521	96.3997
6.472	96.3552
6.424	96.3047
6.377	96.1348
6.33	95.8582
6.284	95.2332
6.238	93.073
6.194	82.4187
6.15	83.9832
6.106	92.5437
6.063	94.4666
6.021	95.083
5.979	95.6472
5.938	96.4011
5.898	96.8591
5.858	97.2615
5.818	97.5105
5.779	97.6101
5.741	97.8289
5.703	97.9932
5.666	98.0117
5.629	98.208
5.592	98.2351
5.556	98.282
5.521	98.3184
5.486	98.3945
5.451	98.5017
5.417	98.5749
5.383	98.5579
5.35	98.6677
5.317	98.7273
5.285	98.8455
5.252	98.9004
5.221	98.9197
5.189	98.9661
5.158	99.0486
5.128	99.114
5.097	99.1201
5.068	99.166
5.038	99.1077
5.009	99.1746
4.98	99.1418
4.951	99.2097
4.923	99.2234
4.895	99.2507
4.868	99.2595
4.84	99.2156
4.814	99.1565
4.787	98.8987
4.76	98.8279
4.734	98.9084
4.709	98.6423
4.683	98.2834
4.658	98.5745
4.633	98.6843
4.608	98.864
4.584	99.2346
4.56	99.2722
4.536	99.3015
4.512	99.1921
4.488	99.1726
4.465	99.323
4.442	99.4109
4.42	99.5881
4.397	99.678
4.375	99.8596
4.353	99.8342
4.331	99.9319
4.309	99.9695
4.288	100.027
4.267	100.108
4.246	100.223
4.225	100.344
4.205	100.405
4.184	100.51
4.164	100.607
4.144	100.543
4.124	100.563
4.105	100.67
4.085	100.605
4.066	100.574
4.047	100.635
4.028	100.66
4.009	100.589
3.991	100.504
3.973	100.467
3.954	100.627
3.936	100.666
3.918	100.811
3.901	100.799
3.883	100.871
3.866	100.801
3.849	100.878
3.832	100.903
3.815	100.952
3.798	100.928
3.781	101.098
3.765	101.074
3.748	101.102
3.732	101.097
3.716	101.131
3.7	101.11
3.685	101.188
3.669	101.094
3.653	101.131
3.638	101.225
3.623	101.222
3.608	101.11
3.593	101.219
3.578	101.131
3.563	101.191
3.548	101.105
3.534	101.076
3.519	100.941
3.505	100.557
3.491	100.748
3.477	100.656
3.463	100.694
3.449	100.675
3.435	100.463
3.422	100.137
3.408	100.308
3.395	100.59
3.382	100.648
3.369	100.883
3.355	100.915
3.342	101.033
3.33	101.084
3.317	101.043
3.304	101.006
3.292	101.065
3.279	101.068
3.267	101.018
3.254	100.851
3.242	100.9
3.23	100.727
3.218	100.735
3.206	100.661
3.194	100.489
3.182	100.388
3.171	100.333
3.159	100.28
3.148	99.9783
3.136	99.822
3.125	99.6931
3.114	99.5974
3.102	99.447
3.091	99.5242
3.08	99.6042
3.069	99.3689
3.058	99.1599
3.048	99.1736
3.037	99.0037
3.026	98.8025
3.016	98.7078
3.005	98.5447
2.995	98.3259
2.985	98.3376
2.974	98.3415
2.964	97.9695
2.954	97.863
2.944	97.7507
2.934	97.7263
2.924	97.6755
2.914	97.4568
2.904	97.6179
2.895	97.5554
2.885	97.5857
2.875	97.571
2.866	97.5212
2.856	97.4187
2.847	97.1013
2.838	96.3679
2.828	94.4021
2.819	88.0125
2.81	83.156
2.801	86.4881
2.792	91.6726
2.783	87.2937
2.774	77.5291
2.765	76.118
2.756	80.8328
2.747	89.031
2.739	95.2146
2.73	98.3044
2.721	100.05
2.713	101.04
2.704	101.427
2.696	102.153
2.687	102.341
2.679	102.743
2.671	102.844
2.663	103
2.654	103.067
2.646	102.969
2.638	103.226
2.63	103.203
2.622	103.459
2.614	103.486
2.606	103.455
2.599	103.435
2.591	103.81
2.583	103.853
2.575	103.535
2.568	103.675
2.56	103.517
2.553	103.832
2.545	103.914
2.538	103.885
2.53	103.894
2.523	103.847
2.515	103.886
2.508	103.9
2.501	104.023
2.494	103.978
2.486	104.15
2.479	104.01
2.472	104.189
2.465	104.299
2.458	104.26
2.451	104.621
2.444	104.252
2.437	104.603
2.43	104.48
2.424	104.734
2.417	104.304
2.41	105.054
2.403	104.957
2.397	104.91
2.39	104.816
2.384	105.254
2.377	105.113
2.37	105.394
2.364	105.142
2.358	105.228
2.351	105.465
2.345	105.291
2.338	105.609
2.332	105.642
2.326	105.469
2.32	105.58
2.313	105.898
2.307	105.992
2.301	105.697
2.295	106.187
2.289	106.15
2.283	106.01
2.277	106.086
2.271	106.234
2.265	106.242
2.259	106.57
2.253	106.558
2.247	106.207
2.241	106.578
2.236	106.875
2.23	106.914
2.224	106.304
2.218	107.062
2.213	107.031
2.207	107.152
2.201	107.57
2.196	107.293
2.19	107.347
2.185	107.332
2.179	107.429
2.174	107.547
2.168	107.969
2.163	107.898
2.157	107.984
2.152	107.953
2.147	107.969
2.141	108.05
2.136	108.179
2.131	108.148
2.126	108
2.12	108.648
2.115	108.382
2.11	108.132
2.105	108.695
2.1	108.89
2.095	108.535
2.09	108.785
2.085	109.379
2.079	108.961
