Name: Olivine (Fo41) (Fe+2,Mg)2SiO4
Type: Mineral
Class: Silicates
Subclass: Nesosilicates (Isolated tetrahedra); (Olivine Group)
Particle Size: Fine  (Less than 2 Micrometers)
Sample No.: olivine.4
Owner: JHU
Wavelength Range: IR
Origin: Kiglapait Intrusion, Labrador via Trude King #KI4143
Description: Initially, the specimen was contaminated with pyroxene,
Measurement: Transmission
X Units: Wavelength (micrometers)
Y Units: Transmittance (percent)
wavelength	value
25.0442	52.1483
24.3388	58.5663
23.6719	59.4881
23.0407	63.5858
22.4422	65.4783
21.8741	63.5174
21.334	54.9237
20.8199	40.5897
20.33	39.9647
19.8627	41.5048
19.4163	41.4501
18.9896	45.2938
18.5812	56.4686
18.19	64.4198
17.815	64.1248
17.4551	54.1131
17.1094	53.3182
16.7772	62.2596
16.4576	74.1014
16.15	82.6951
15.8537	87.1375
15.568	89.2976
15.2925	90.6541
15.0265	91.492
14.7697	91.5476
14.5214	91.367
14.2814	91.031
14.0492	90.4724
13.8244	89.4436
13.6067	88.531
13.3957	87.01
13.1912	85.0388
12.9929	82.4549
12.8004	78.9768
12.6135	74.8167
12.432	68.7015
12.2557	59.3441
12.0843	43.6083
11.9176	45.4984
11.7555	36.9867
11.5977	25.7031
11.444	16.3183
11.2944	16.2548
11.1487	20.7568
11.0067	25.145
10.8682	29.9609
10.7332	30.5585
10.6015	43.5316
10.473	30.1156
10.3476	29.7426
10.2251	32.4823
10.1056	38.4662
9.98873	47.847
9.87458	57.4193
9.763	65.3021
9.65392	71.0472
9.54724	75.115
9.44291	77.9827
9.34082	80.3831
9.24091	82.3601
9.14312	84.2371
9.04739	86.2097
8.95363	87.7268
8.8618	89.0213
8.77183	89.9221
8.68368	90.742
8.59727	91.4775
8.51257	92.4404
8.42951	93.3679
8.34807	94.0508
8.26819	94.7
8.18981	95.2559
8.11292	95.6628
8.03745	95.9238
7.96337	96.1746
7.89064	96.3389
7.81924	96.4307
7.74911	96.501
7.68023	96.5566
7.61256	96.6182
7.54608	96.7109
7.48074	96.8994
7.41653	96.915
7.35341	96.908
7.29136	96.8884
7.23034	96.6536
7.17033	96.7812
7.11132	96.6067
7.05327	96.4658
6.99616	95.6768
6.93996	94.6846
6.88467	94.9675
6.83024	95.5642
6.77667	95.7986
6.72393	95.9753
6.67201	96.1448
6.62089	96.1719
6.57054	96.2559
6.52095	95.8845
6.4721	95.5554
6.42398	95.2156
6.37657	94.6289
6.32986	93.8416
6.28382	92.8826
6.23845	91.4209
6.19373	90.1809
6.14965	89.5059
6.10619	90.7097
6.06334	90.8074
6.02109	88.9314
5.97942	88.6072
5.93832	90.5925
5.89778	92.4336
5.8578	93.1475
5.81835	93.573
5.77943	93.2859
5.74103	93.1336
5.70314	92.9541
5.66574	92.8965
5.62883	92.8894
5.5924	92.8547
5.55644	92.7551
5.52093	92.6836
5.48588	92.5869
5.45127	92.5559
5.41709	92.5032
5.38334	92.3594
5.35	92.2976
5.31708	92.1963
5.28456	92.1397
5.25243	92.1152
5.2207	92.0127
5.18934	91.8565
5.15836	91.7517
5.12775	91.6394
5.09749	91.4981
5.0676	91.4026
5.03805	91.3308
5.00884	91.25
4.97998	91.1453
4.95144	91.075
4.92322	90.9695
4.89533	90.8347
4.86775	90.7415
4.84048	90.6043
4.81351	90.4602
4.78684	90.3464
4.76047	90.2117
4.73439	90.0628
4.70859	89.9041
4.68306	89.7947
4.65782	89.6531
4.63284	89.5427
4.60814	89.3884
4.58369	89.2376
4.5595	89.1482
4.53557	88.9754
4.51188	88.8382
4.48845	88.7224
4.46525	88.5525
4.44229	88.4744
4.41957	88.3377
4.39708	88.1902
4.37481	88.0623
4.35277	87.9319
4.33096	87.8133
4.30935	87.6956
4.28797	87.5335
4.26679	87.4158
4.24583	87.3401
4.22506	87.1878
4.2045	87.0198
4.18414	86.908
4.16398	86.7962
4.14401	86.6428
4.12423	86.5135
4.10464	86.3709
4.08523	86.2234
4.066	86.0584
4.04696	85.926
4.02809	85.824
4.0094	85.657
3.99088	85.5457
3.97253	85.3577
3.95435	85.2224
3.93634	85.0818
3.91848	84.949
3.90079	84.7801
3.88326	84.6507
3.86589	84.5125
3.84867	84.3601
3.8316	84.2195
3.81468	84.0804
3.79791	83.95
3.78129	83.7698
3.76482	83.6306
3.74848	83.4617
3.73229	83.368
3.71624	83.1702
3.70032	83.076
3.68454	82.9783
3.6689	82.7576
3.65338	82.7234
3.638	82.4881
3.62275	82.3445
3.60762	82.2058
3.59262	82.0804
3.57775	81.9007
3.56299	81.7234
3.54836	81.6033
3.53385	81.4222
3.51945	81.3772
3.50517	81.178
3.49101	81.0486
3.47696	80.8846
3.46303	80.8323
3.4492	80.6072
3.43549	80.4588
3.42188	80.2889
3.40838	80.1233
3.39499	80.0232
3.38171	79.8421
3.36852	79.7132
3.35544	79.5408
3.34246	79.4051
3.32958	79.2366
3.3168	79.1189
3.30411	78.9861
3.29153	78.8338
3.27903	78.6839
3.26664	78.555
3.25433	78.3631
3.24212	78.2088
3.23	78.0198
3.21797	77.8748
3.20603	77.699
3.19418	77.5076
3.18241	77.3084
3.17074	77.1453
3.15914	76.908
3.14763	76.6434
3.13621	76.2859
3.12487	75.9305
3.11361	75.8514
3.10243	75.8602
3.09133	75.7947
3.0803	75.5643
3.06936	75.3074
3.0585	75.2078
3.04771	75.1463
3.037	75.0408
3.02636	74.7537
3.0158	74.3904
3.00531	74.1336
2.99489	74.0408
2.98454	74.0232
2.97427	74.0057
2.96407	74.0906
2.95393	74.0213
2.94387	73.9549
2.93387	73.7742
2.92394	73.7156
2.91408	73.615
2.90429	73.6795
2.89456	73.7635
2.88489	73.9266
2.87529	74.0486
2.86576	74.0857
2.85628	74.2674
2.84687	74.2693
2.83752	74.368
2.82823	74.3338
2.81901	74.3279
2.80984	74.1961
2.80073	74.2713
2.79168	74.0838
2.78269	74.1414
2.77376	74.0906
2.76488	73.9266
2.75606	73.9647
2.7473	73.9148
2.73859	74.0818
2.72994	73.824
2.72134	74.0438
2.7128	73.8797
2.70431	73.8436
2.69587	73.7693
2.68748	73.7195
2.67915	73.8318
2.67087	73.8758
2.66264	73.4686
2.65446	73.5281
2.64633	73.3865
2.63825	73.325
2.63021	73.5076
2.62223	73.2654
2.6143	73.1365
2.60641	73.2244
2.59857	73.035
2.59078	72.9842
2.58304	73.0584
2.57534	72.9022
2.56768	72.7889
2.56008	72.7811
2.55251	72.6678
2.54499	72.6639
2.53752	72.6404
2.53009	72.5721
2.5227	72.5096
2.51536	72.5662
2.50806	72.4373
2.5008	72.5311
2.49358	72.4393
2.4864	72.2596
2.47927	72.1795
2.47218	72.2283
2.46512	72.1873
2.45811	72.1111
2.45114	72.0096
2.4442	71.9647
2.43731	72.0018
2.43045	71.8787
2.42363	71.7303
2.41685	71.8397
2.41011	71.7967
2.40341	71.7733
2.39674	71.5858
2.39011	71.658
2.38352	71.5154
2.37696	71.4393
2.37044	71.4451
2.36395	71.3826
2.35751	71.4236
2.35109	71.3768
2.34471	71.119
2.33836	71.2361
2.33205	71.2615
2.32578	71.1404
2.31953	70.9686
2.31332	70.8787
2.30714	71.0545
2.301	70.8143
2.29489	70.7733
2.28881	70.7889
2.28276	70.6111
2.27675	70.6248
2.27076	70.4178
2.26481	70.2811
2.25889	70.285
2.253	70.492
2.24714	70.2615
2.24131	70.1678
2.23551	70.1951
2.22974	70.0623
2.224	70.0662
2.21829	69.7889
2.21261	70.1248
2.20696	69.7654
2.20134	69.5701
2.19574	69.4295
2.19018	69.6561
2.18464	69.4139
2.17913	69.1912
2.17365	69.3826
2.16819	69.1522
2.16277	69.5037
2.15737	68.8006
2.15199	69.0936
2.14665	68.8436
2.14133	68.6912
2.13603	68.8006
2.13077	68.5858
2.12552	68.535
2.12031	68.535
2.11512	68.6639
2.10995	68.4256
2.10481	68.1483
2.0997	68.1912
2.09461	68.2733
2.08954	67.9881
2.0845	67.953
2.07948	67.9569
