Name: Quartz SiO2
Type: Mineral
Class: Silicates
Subclass: Tectosilicates (Silica Group)
Particle Size: Coarse  (75 - 250  Micrometers)
Sample No.: quartz.2
Owner: JHU
Wavelength Range: IR
Origin: Rock Springs, Arkansas via Hunt and Salisbury Collection
Description: No solid sample was available, but the powdered sample
Measurement: Bidirectional reflectance
X Units: Wavelength (micrometers)
Y Units: Reflectance (percent)
wavelength	value
25.0442	6.186
24.3388	3.1741
23.6719	3.8608
23.0407	4.5776
22.4422	5.9746
21.8741	8.605
21.334	9.9077
20.8199	11.3991
20.33	12.8779
19.8627	13.1457
19.4163	8.365
18.9896	6.2639
18.5812	6.5115
18.19	6.7488
17.815	3.7017
17.4551	2.2698
17.1094	2.6274
16.7772	2.8579
16.4576	2.8794
16.15	2.8054
15.8537	2.8401
15.568	2.7158
15.2925	2.7273
15.0265	2.6531
14.7697	2.561
14.5214	2.5552
14.2814	2.0034
14.0492	2.2983
13.8244	2.4724
13.6067	2.5286
13.3957	2.6247
13.1912	2.7424
12.9929	3.2268
12.8004	4.8406
12.6135	3.6831
12.432	4.0786
12.2557	1.1765
12.0843	1.6396
11.9176	1.9399
11.7555	2.1338
11.5977	2.3057
11.444	2.3872
11.2944	2.4951
11.1487	2.5647
11.0067	2.6465
10.8682	2.6726
10.7332	2.7432
10.6015	2.7961
10.473	2.8638
10.3476	2.9365
10.2251	3.0608
10.1056	3.1909
9.98873	3.4014
9.87458	3.6731
9.763	4.0298
9.65392	4.5693
9.54724	5.3581
9.44291	7.1421
9.34082	11.5083
9.24091	13.8086
9.14312	14.2778
9.04739	14.5346
8.95363	14.6779
8.8618	14.6355
8.77183	14.1135
8.68368	12.9257
8.59727	11.1462
8.51257	14.2668
8.42951	14.2849
8.34807	14.0371
8.26819	14.0359
8.18981	13.7729
8.11292	12.1479
8.03745	10.5859
7.96337	9.4983
7.89064	7.9485
7.81924	6.7905
7.74911	6.4038
7.68023	5.6194
7.61256	4.2551
7.54608	2.9626
7.48074	1.3596
7.41653	0.3108
7.35341	0.1091
7.29136	0.2126
7.23034	0.3611
7.17033	0.5107
7.11132	0.7019
7.05327	0.8157
6.99616	0.9707
6.93996	1.1204
6.88467	1.1746
6.83024	1.127
6.77667	1.05
6.72393	0.9639
6.67201	1.019
6.62089	1.0569
6.57054	0.9856
6.52095	1.1003
6.4721	1.625
6.42398	1.8455
6.37657	1.562
6.32986	1.2686
6.28382	1.0334
6.23845	0.9414
6.19373	0.9387
6.14965	1.1145
6.10619	1.4363
6.06334	1.6414
6.02109	1.6025
5.97942	1.3699
5.93832	1.2375
5.89778	1.4197
5.8578	1.772
5.81835	2.1528
5.77943	2.4995
5.74103	2.7998
5.70314	2.875
5.66574	2.2707
5.62883	1.5476
5.5924	1.3757
5.55644	1.3896
5.52093	1.5791
5.48588	1.8782
5.45127	2.064
5.41709	1.647
5.38334	1.1763
5.35	1.0774
5.31708	1.0845
5.28456	1.1243
5.25243	1.3022
5.2207	1.7683
5.18934	2.0049
5.15836	1.9231
5.12775	1.8525
5.09749	1.7939
5.0676	1.5847
5.03805	1.5549
5.00884	1.5503
4.97998	1.6899
4.95144	2.1992
4.92322	2.6179
4.89533	4.0452
4.86775	5.8
4.84048	6.8638
4.81351	7.5608
4.78684	8.1096
4.76047	8.511
4.73439	8.7658
4.70859	8.6299
4.68306	7.8179
4.65782	8.5578
4.63284	9.373
4.60814	9.8508
4.58369	10.0193
4.5595	9.8711
4.53557	9.1977
4.51188	8.0774
4.48845	7.1816
4.46525	6.9197
4.44229	7.3911
4.41957	7.7761
4.39708	8.3323
4.37481	9.051
4.35277	9.6609
4.33096	9.9983
4.30935	9.9953
4.28797	9.9194
4.26679	10.1631
4.24583	10.2556
4.22506	10.2168
4.2045	10.2392
4.18414	10.3259
4.16398	10.5293
4.14401	10.6797
4.12423	10.8745
4.10464	11.1013
4.08523	11.3325
4.066	11.4692
4.04696	11.5002
4.02809	11.4533
4.0094	11.4543
3.99088	11.4953
3.97253	11.6091
3.95435	11.7695
3.93634	11.8955
3.91848	11.9682
3.90079	11.9438
3.88326	11.8381
3.86589	11.747
3.84867	11.7248
3.8316	11.7773
3.81468	11.8586
3.79791	11.8906
3.78129	11.8567
3.76482	11.7649
3.74848	11.6972
3.73229	11.7175
3.71624	11.83
3.70032	12.0139
3.68454	12.2202
3.6689	12.3767
3.65338	12.4934
3.638	12.5617
3.62275	12.5742
3.60762	12.602
3.59262	12.6357
3.57775	12.6989
3.56299	12.7688
3.54836	12.8349
3.53385	12.9001
3.51945	12.9367
3.50517	12.8903
3.49101	12.9922
3.47696	13.0576
3.46303	13.1059
3.4492	13.0898
3.43549	13.0361
3.42188	12.8715
3.40838	12.9218
3.39499	13.04
3.38171	13.0319
3.36852	13.0915
3.35544	13.1894
3.34246	13.2173
3.32958	13.2221
3.3168	13.2207
3.30411	13.2055
3.29153	13.1921
3.27903	13.1882
3.26664	13.1801
3.25433	13.1657
3.24212	13.177
3.23	13.1591
3.21797	13.1401
3.20603	13.1433
3.19418	13.1125
3.18241	13.1098
3.17074	13.0678
3.15914	13.0439
3.14763	12.9968
3.13621	12.8632
3.12487	12.8369
3.11361	12.8733
3.10243	12.9321
3.09133	12.9211
3.0803	12.9121
3.06936	12.882
3.0585	12.8073
3.04771	12.7251
3.037	12.6115
3.02636	12.5593
3.0158	12.562
3.00531	12.6025
2.99489	12.6594
2.98454	12.6726
2.97427	12.5288
2.96407	12.1804
2.95393	12.2026
2.94387	12.4204
2.93387	12.5315
2.92394	12.5586
2.91408	12.5561
2.90429	12.6438
2.89456	12.761
2.88489	12.8139
2.87529	12.7805
2.86576	12.8244
2.85628	12.9272
2.84687	12.9575
2.83752	12.9929
2.82823	13.0405
2.81901	13.071
2.80984	13.0854
2.80073	13.0974
2.79168	13.1118
2.78269	13.1111
2.77376	13.1714
2.76488	13.1496
2.75606	13.1975
2.7473	13.2177
2.73859	13.2812
2.72994	13.2846
2.72134	13.3457
2.7128	13.3567
2.70431	13.3789
2.69587	13.4597
2.68748	13.4687
2.67915	13.5068
2.67087	13.5446
2.66264	13.5156
2.65446	13.487
2.64633	13.4721
2.63825	13.4748
2.63021	13.4797
2.62223	13.458
2.6143	13.4445
2.60641	13.434
2.59857	13.4497
2.59078	13.446
2.58304	13.4485
2.57534	13.4018
2.56768	13.395
2.56008	13.4026
2.55251	13.3784
2.54499	13.3591
2.53752	13.3476
2.53009	13.3354
2.5227	13.3388
2.51536	13.3369
2.50806	13.3354
2.5008	13.2915
2.49358	13.3181
2.4864	13.2905
2.47927	13.2854
2.47218	13.2617
2.46512	13.2524
2.45811	13.2878
2.45114	13.237
2.4442	13.2216
2.43731	13.2436
2.43045	13.1943
2.42363	13.1867
2.41685	13.2297
2.41011	13.2102
2.40341	13.2031
2.39674	13.1684
2.39011	13.1792
2.38352	13.1831
2.37696	13.1836
2.37044	13.1992
2.36395	13.1674
2.35751	13.1601
2.35109	13.2055
2.34471	13.1709
2.33836	13.1225
2.33205	13.125
2.32578	13.1284
2.31953	13.1626
2.31332	13.145
2.30714	13.1728
2.301	13.146
2.29489	13.1303
2.28881	13.1533
2.28276	13.1201
2.27675	13.1557
2.27076	13.143
2.26481	13.1384
2.25889	13.1355
2.253	13.1606
2.24714	13.1391
2.24131	13.1645
2.23551	13.2173
2.22974	13.1587
2.224	13.1865
2.21829	13.2104
2.21261	13.2251
2.20696	13.2121
2.20134	13.1775
2.19574	13.2226
2.19018	13.2509
2.18464	13.2407
2.17913	13.2597
2.17365	13.2981
2.16819	13.2888
2.16277	13.2812
2.15737	13.3173
2.15199	13.2727
2.14665	13.2685
2.14133	13.3232
2.13603	13.3606
2.13077	13.3813
2.12552	13.3567
2.12031	13.4326
2.11512	13.3977
2.10995	13.3947
2.10481	13.4292
2.0997	13.498
2.09461	13.5332
2.08954	13.5527
2.0845	13.5676
2.07948	13.5522
