Name: Andalusite Al2SiO5
Type: Mineral
Class: Silicates
Subclass: Nesosilicates  (Isolated tetrahedra) (Al2SiO5 Group)
Particle Size: Coarse (74-250 Micrometers)
Owner: JHU
Wavelength Range: IR
Origin: Sample from St. Theresa, Espirito Santo, Brazil via Smithsonian
Description: Sample was composed of two crystals, one clear and one
Measurement: Bidirectional Reflectance
X Units: Wavelength (micrometers)
Y Units: Reflectance (percent)
wavelength	value
25.044	4.5864
24.339	5.1252
23.672	6.5176
23.041	8.227
22.442	8.854
21.874	11.3208
21.334	5.7949
20.82	4.1912
20.33	5.0337
19.863	5.8511
19.416	4.1265
18.99	4.8525
18.581	6.0491
18.19	6.6057
17.815	5.8784
17.455	5.1235
17.109	5.4473
16.777	5.7981
16.458	6.0827
16.15	6.3828
15.854	6.6809
15.568	7.0117
15.292	7.239
15.027	6.9783
14.77	7.822
14.521	8.6357
14.281	8.2888
14.049	6.9758
13.824	5.9597
13.607	5.573
13.396	4.7783
13.191	3.6875
12.993	2.7754
12.8	1.7749
12.614	1.5518
12.432	1.6299
12.256	1.8706
12.084	2.1318
11.918	2.3918
11.755	2.707
11.598	3.2458
11.444	3.7947
11.294	4.4497
11.149	5.1504
11.007	5.7964
10.868	5.1348
10.733	7.521
10.602	9.5183
10.473	9.6262
10.348	6.9919
10.225	10.6806
10.106	11.2973
9.989	11.341
9.875	11.1274
9.763	10.1323
9.654	8.8896
9.547	8.259
9.443	8.1406
9.341	8.1701
9.241	7.8896
9.143	6.9597
9.047	5.5386
8.954	4.3816
8.862	3.3879
8.772	2.4849
8.684	1.6628
8.597	0.8833
8.513	0.4561
8.43	0.3547
8.348	0.4045
8.268	0.4766
8.19	0.552
8.113	0.6121
8.037	0.6799
7.963	0.7285
7.891	0.7683
7.819	0.8074
7.749	0.8545
7.68	0.9099
7.613	0.9487
7.546	1.0105
7.481	1.0771
7.417	1.1504
7.353	1.2886
7.291	1.4783
7.23	1.6694
7.17	1.8618
7.111	1.9966
7.053	2.1509
6.996	2.2593
6.94	2.2078
6.885	2.1235
6.83	2.2217
6.777	2.2993
6.724	2.2239
6.672	2.0654
6.621	2.0198
6.571	2.0977
6.521	2.1804
6.472	2.2761
6.424	2.4756
6.377	2.6448
6.33	2.6743
6.284	2.8608
6.238	2.9585
6.194	3.1904
6.15	3.4409
6.106	3.6943
6.063	4.074
6.021	4.0161
5.979	3.7322
5.938	3.8645
5.898	4.1243
5.858	4.3381
5.818	4.5537
5.779	4.9487
5.741	4.9629
5.703	5.03
5.666	4.9682
5.629	4.5581
5.592	3.624
5.556	2.729
5.521	2.323
5.486	2.4165
5.451	2.5642
5.417	2.0398
5.383	2.0718
5.35	2.4055
5.317	2.6941
5.285	2.5383
5.252	2.478
5.221	2.8874
5.189	3.7683
5.158	4.0268
5.128	3.2917
5.097	3.2087
5.068	3.6211
5.038	4.2375
5.009	4.0515
4.98	3.1074
4.951	2.644
4.923	2.9639
4.895	3.9841
4.868	5.2407
4.84	6.1758
4.814	7.2309
4.787	8.386
4.76	8.8415
4.734	8.8088
4.709	8.9687
4.683	9.5708
4.658	10.1902
4.633	10.6306
4.608	10.8547
4.584	10.8801
4.56	10.9377
4.536	11.0764
4.512	11.2878
4.488	11.4687
4.465	11.5901
4.442	11.6841
4.42	11.7617
4.397	11.8503
4.375	11.9338
4.353	12.0056
4.331	12.0583
4.309	12.0888
4.288	12.1389
4.267	12.2153
4.246	12.2768
4.225	12.334
4.205	12.3899
4.184	12.4458
4.164	12.4685
4.144	12.4914
4.124	12.5063
4.105	12.541
4.085	12.5769
4.066	12.5962
4.047	12.6108
4.028	12.6311
4.009	12.6506
3.991	12.6726
3.973	12.6819
3.954	12.7121
3.936	12.7378
3.918	12.7641
3.901	12.7549
3.883	12.7519
3.866	12.7175
3.849	12.6477
3.832	12.6142
3.815	12.6687
3.798	12.7583
3.781	12.8305
3.765	12.8772
3.748	12.8757
3.732	12.8681
3.716	12.8662
3.7	12.8513
3.685	12.8032
3.669	12.7168
3.653	12.643
3.638	12.5481
3.623	12.3918
3.608	12.3286
3.593	12.3806
3.578	12.4575
3.563	12.51
3.548	12.5219
3.534	12.5197
3.519	12.5332
3.505	12.518
3.491	12.5803
3.477	12.6186
3.463	12.6506
3.449	12.6428
3.435	12.6279
3.422	12.5268
3.408	12.541
3.395	12.6628
3.382	12.6924
3.369	12.737
3.355	12.7939
3.342	12.8134
3.33	12.8259
3.317	12.8242
3.304	12.8335
3.292	12.7978
3.279	12.7819
3.267	12.7566
3.254	12.7517
3.242	12.7678
3.23	12.739
3.218	12.6936
3.206	12.7043
3.194	12.6987
3.182	12.708
3.171	12.7033
3.159	12.6853
3.148	12.6782
3.136	12.6274
3.125	12.624
3.114	12.5869
3.102	12.5608
3.091	12.4712
3.08	12.3405
3.069	12.2248
3.058	11.9712
3.048	12.164
3.037	12.3462
3.026	12.4038
3.016	12.4248
3.005	12.4033
2.995	12.4321
2.985	12.4353
2.974	12.384
2.964	12.3449
2.954	12.2976
2.944	12.1567
2.934	11.8994
2.924	11.186
2.914	10.0005
2.904	9.6628
2.895	10.0273
2.885	9.6853
2.875	11.2917
2.866	11.8694
2.856	12.0412
2.847	10.8017
2.838	9.3078
2.828	11.584
2.819	12.3159
2.81	12.4057
2.801	12.4243
2.792	12.4204
2.783	11.5549
2.774	12.0844
2.765	12.2656
2.756	12.3513
2.747	12.424
2.739	11.4729
2.73	12.4987
2.721	12.6015
2.713	12.6421
2.704	12.5407
2.696	12.7946
2.687	12.9314
2.679	12.977
2.671	12.9817
2.663	13.0488
2.654	13.0312
2.646	13.0466
2.638	13.0376
2.63	12.9785
2.622	13.0217
2.614	13
2.606	12.9609
2.599	12.9863
2.591	12.9963
2.583	12.9409
2.575	12.9643
2.568	12.9738
2.56	12.9568
2.553	12.9131
2.545	12.9184
2.538	12.9272
2.53	12.9043
2.523	12.9038
2.515	12.8845
2.508	12.8928
2.501	12.9243
2.494	12.8447
2.486	12.8466
2.479	12.8584
2.472	12.8173
2.465	12.7666
2.458	12.8039
2.451	12.8169
2.444	12.7331
2.437	12.7478
2.43	12.7358
2.424	12.7299
2.417	12.7138
2.41	12.7649
2.403	12.709
2.397	12.6699
2.39	12.6582
2.384	12.6357
2.377	12.6445
2.37	12.646
2.364	12.6284
2.358	12.542
2.351	12.5464
2.345	12.5947
2.338	12.643
2.332	12.6277
2.326	12.6496
2.32	12.6135
2.313	12.6184
2.307	12.6284
2.301	12.6262
2.295	12.6164
2.289	12.5971
2.283	12.5869
2.277	12.5571
2.271	12.5778
2.265	12.5737
2.259	12.5361
2.253	12.552
2.247	12.5105
2.241	12.5373
2.236	12.5149
2.23	12.508
2.224	12.5158
2.218	12.5454
2.213	12.5383
2.207	12.5527
2.201	12.5649
2.196	12.5918
2.19	12.5998
2.185	12.5757
2.179	12.6565
2.174	12.6457
2.168	12.6718
2.163	12.6389
2.157	12.6645
2.152	12.6777
2.147	12.6396
2.141	12.6867
2.136	12.6926
2.131	12.6955
2.126	12.7368
2.12	12.7841
2.115	12.7756
2.11	12.7534
2.105	12.7883
2.1	12.7617
2.095	12.7671
2.09	12.7903
2.085	12.7983
2.079	12.8027
