Name: Spessartine Mn3Al2 (SiO4)3
Type: Mineral
Class: Silicates
Subclass: Nesosilicates (Framework silicates); GarnetGroup
Particle Size: Fine (Less than 2 Micrometers)
Sample No.: spessart.2
Owner: JHU
Wavelength Range: IR
Origin: Rutherford #2 mine, Amelia, Amelia Co., Virginia, USA via the
Description: The sample consisted of a group of 3 mm and smaller
Measurement: Transmission
X Units: Wavelength (micrometers)
Y Units: Transmittance (percent)
wavelength	value
25.044	72.2967
24.339	73.6248
23.672	74.1326
23.041	68.158
22.442	51.91
21.874	45.0272
21.334	37.5272
20.82	32.5585
20.33	40.1894
19.863	49.0546
19.416	55.2547
18.99	60.4422
18.581	70.6014
18.19	67.9344
17.815	48.0087
17.455	52.8827
17.109	67.0203
16.777	75.993
16.458	79.4295
16.15	79.6717
15.854	72.367
15.568	79.2625
15.292	79.782
15.027	80.8162
14.77	82.0642
14.521	83.4422
14.281	83.7439
14.049	83.1765
13.824	83.9182
13.607	84.8323
13.396	84.9964
13.191	85.3557
12.993	85.9578
12.8	85.5178
12.614	85.3172
12.432	83.9236
12.256	80.6214
12.084	75.8807
11.918	68.5633
11.755	56.8124
11.598	37.602
11.444	34.8105
11.294	28.1767
11.149	28.7636
11.007	41.5214
10.868	55.5311
10.733	54.6366
10.602	32.7157
10.473	19.4511
10.348	26.8281
10.225	32.5038
10.106	39.3773
9.989	49.9501
9.875	57.4129
9.763	60.8031
9.654	62.4862
9.547	66.1409
9.443	68.5897
9.341	68.7547
9.241	69.3221
9.143	70.7488
9.047	70.8011
8.954	71.5882
8.862	75.1644
8.772	77.6429
8.684	79.844
8.597	81.9534
8.513	84.3387
8.43	86.9163
8.348	89.3259
8.268	91.1738
8.19	92.4649
8.113	93.2197
8.037	93.834
7.963	94.197
7.891	94.5127
7.819	94.739
7.749	94.9177
7.68	94.9382
7.613	94.9138
7.546	94.9055
7.481	94.9959
7.417	94.8857
7.353	94.7891
7.291	94.6943
7.23	94.5518
7.17	94.4797
7.111	94.2712
7.053	94.1475
6.996	94.1287
6.94	94.2468
6.885	94.4089
6.83	94.6758
6.777	95.0615
6.724	95.3894
6.672	95.614
6.621	95.6787
6.571	95.7693
6.521	95.7598
6.472	95.3906
6.424	95.1101
6.377	94.6179
6.33	93.9346
6.284	93.3533
6.238	92.7705
6.194	92.1787
6.15	92.2429
6.106	92.3789
6.063	93.0508
6.021	94.1277
5.979	94.8809
5.938	96.0676
5.898	96.7634
5.858	97.0791
5.818	97.2927
5.779	97.3669
5.741	97.5305
5.703	97.6875
5.666	97.7393
5.629	97.823
5.592	97.8718
5.556	97.8301
5.521	97.9871
5.486	98.0115
5.451	98.1621
5.417	98.2168
5.383	98.197
5.35	98.2732
5.317	98.3269
5.285	98.4629
5.252	98.4834
5.221	98.5371
5.189	98.6101
5.158	98.6777
5.128	98.6882
5.097	98.7165
5.068	98.7207
5.038	98.6794
5.009	98.6819
4.98	98.6785
4.951	98.7185
4.923	98.6741
4.895	98.7087
4.868	98.7112
4.84	98.7571
4.814	98.7624
4.787	98.7722
4.76	98.7869
4.734	98.7605
4.709	98.7629
4.683	98.8186
4.658	98.762
4.633	98.7673
4.608	98.7991
4.584	98.8118
4.56	98.7908
4.536	98.8093
4.512	98.781
4.488	98.8054
4.465	98.8308
4.442	98.803
4.42	98.8523
4.397	98.8074
4.375	98.8596
4.353	98.7927
4.331	98.8044
4.309	98.7908
4.288	98.78
4.267	98.803
4.246	98.8415
4.225	98.8503
4.205	98.8747
4.184	98.8435
4.164	98.8616
4.144	98.7678
4.124	98.8069
4.105	98.8205
4.085	98.8518
4.066	98.7898
4.047	98.7585
4.028	98.7873
4.009	98.6648
3.991	98.6174
3.973	98.5447
3.954	98.6062
3.936	98.6111
3.918	98.6838
3.901	98.6296
3.883	98.5452
3.866	98.5027
3.849	98.5686
3.832	98.4709
3.815	98.4499
3.798	98.4167
3.781	98.3987
3.765	98.3225
3.748	98.2537
3.732	98.1599
3.716	98.0818
3.7	98.0037
3.685	97.9138
3.669	97.8577
3.653	97.8113
3.638	97.7165
3.623	97.6487
3.608	97.5334
3.593	97.4871
3.578	97.3474
3.563	97.1931
3.548	97.0549
3.534	96.9275
3.519	96.6057
3.505	96.0901
3.491	96.1702
3.477	96.0876
3.463	95.9104
3.449	95.7717
3.435	95.4534
3.422	94.8709
3.408	94.8948
3.395	95.2405
3.382	95.0569
3.369	95.2185
3.355	95.2595
3.342	95.1956
3.33	95.1267
3.317	94.9163
3.304	94.8201
3.292	94.7185
3.279	94.5354
3.267	94.2517
3.254	94.0144
3.242	93.8474
3.23	93.6189
3.218	93.3904
3.206	93.1511
3.194	92.9216
3.182	92.5711
3.171	92.3767
3.159	91.9763
3.148	91.6033
3.136	91.3406
3.125	91.0525
3.114	90.7048
3.102	90.3689
3.091	90.1091
3.08	89.7273
3.069	89.5388
3.058	89.2371
3.048	89.0203
3.037	88.572
3.026	88.1931
3.016	87.6023
3.005	86.8767
2.995	86.1287
2.985	85.3748
2.974	84.0642
2.964	82.7039
2.954	81.9021
2.944	81.8709
2.934	81.8523
2.924	81.8123
2.914	81.825
2.904	82.1853
2.895	82.6883
2.885	83.1883
2.875	83.9969
2.866	84.742
2.856	85.5174
2.847	86.2654
2.838	86.781
2.828	87.4217
2.819	87.9138
2.81	88.6716
2.801	89.4529
2.792	90.3562
2.783	91.5007
2.774	92.8669
2.765	93.8718
2.756	95.074
2.747	96.2156
2.739	97.0837
2.73	97.8435
2.721	98.5515
2.713	98.6404
2.704	98.7576
2.696	98.9148
2.687	99.0906
2.679	99.1833
2.671	99.2341
2.663	99.2146
2.654	99.0974
2.646	99.0671
2.638	99.0622
2.63	99.0954
2.622	99.2595
2.614	99.0857
2.606	99.0622
2.599	98.9997
2.591	99.1423
2.583	99.1775
2.575	98.8533
2.568	98.9685
2.56	99.0642
2.553	99.0193
2.545	98.8806
2.538	99.0154
2.53	99.0466
2.523	98.8357
2.515	99.0076
2.508	99.0369
2.501	99.0701
2.494	98.8904
2.486	98.9685
2.479	99.0935
2.472	98.8142
2.465	99.0544
2.458	98.9997
2.451	99.0017
2.444	98.8298
2.437	99.2204
2.43	99.0251
2.424	98.9236
2.417	98.8162
2.41	99.1814
2.403	98.9646
2.397	98.9802
2.39	98.9392
2.384	99.0622
2.377	99.3923
2.37	99.2185
2.364	99.1521
2.358	98.9001
2.351	99.0115
2.345	99.0408
2.338	99.1208
2.332	99.1169
2.326	99.1404
2.32	99.2185
2.313	99.2517
2.307	99.2595
2.301	99.1951
2.295	99.2595
2.289	99.572
2.283	99.1638
2.277	99.1482
2.271	99.156
2.265	99.1443
2.259	99.3787
2.253	99.3787
2.247	99.2654
2.241	99.5193
2.236	99.6912
2.23	99.3591
2.224	99.3747
2.218	99.7615
2.213	99.324
2.207	99.6599
2.201	99.6443
2.196	99.5466
2.19	99.613
2.185	99.4841
2.179	99.5701
2.174	99.7419
2.168	99.7341
2.163	99.988
2.157	99.5779
2.152	99.7458
2.147	99.6443
2.141	100.004
2.136	99.7068
2.131	99.738
2.126	99.7888
2.12	100.422
2.115	99.9997
2.11	99.7497
2.105	99.8591
2.1	100.187
2.095	100.14
2.09	100.148
2.085	100.398
2.079	99.8201
