Name: Lance2
Type: Stony Meteorites
Class: Carbonaceous Chondrite
Subclass: CO
Particle Size: 0-75 micrometers
Sample No.: Lance2
Owner: JHU
Origin: Meteorite seen to fall in France in 1872.  Museum National d'Histoire
Description: None.
Measurement: Bidirectional reflectance
X Units: Wavelength (micrometers)
Y Units: Reflectance (percent)
wavelength	value
25.044	0.7627
24.339	0.7627
23.672	0.7231
23.041	0.6907
22.442	0.7434
21.874	0.718
21.334	0.7407
20.82	0.7798
20.33	0.7437
19.863	0.8044
19.416	0.8616
18.99	0.8252
18.581	0.7756
18.19	0.7205
17.815	0.6497
17.455	0.6428
17.109	0.603
16.777	0.5801
16.458	0.5574
16.15	0.5811
15.854	0.5867
15.568	0.5896
15.292	0.6064
15.027	0.6528
14.77	0.6997
14.521	0.7505
14.281	0.8308
14.049	0.9253
13.824	0.9448
13.607	1.0212
13.396	1.1858
13.191	1.334
12.993	1.4604
12.8	1.5276
12.614	1.532
12.432	1.4709
12.256	1.3259
12.084	1.0505
11.918	0.8494
11.755	0.9016
11.598	0.9109
11.444	0.9053
11.294	0.8738
11.149	0.8552
11.007	0.845
10.868	0.8782
10.733	0.9189
10.602	0.887
10.473	0.8613
10.348	0.8193
10.225	0.7827
10.106	0.7124
9.9887	0.7043
9.8746	0.7168
9.763	0.7146
9.6539	0.7493
9.5472	0.8242
9.4429	0.8704
9.3408	0.8774
9.2409	0.8423
9.1431	0.8474
9.0474	0.9036
8.9536	0.9724
8.8618	1.0251
8.7718	1.0686
8.6837	1.0891
8.5973	1.2148
8.5126	1.29
8.4295	1.3838
8.3481	1.4868
8.2682	1.5828
8.1898	1.6702
8.1129	1.7561
8.0374	1.8335
7.9634	1.8994
7.8906	1.9539
7.8192	2
7.7491	2.0381
7.6802	2.0615
7.6126	2.0754
7.5461	2.0947
7.4807	2.1177
7.4165	2.1301
7.3534	2.1623
7.2914	2.1985
7.2303	2.2246
7.1703	2.2419
7.1113	2.2703
7.0533	2.302
6.9962	2.3518
6.94	2.396
6.8847	2.4277
6.8302	2.456
6.7767	2.5012
6.7239	2.5237
6.672	2.5198
6.6209	2.519
6.5705	2.5083
6.5209	2.4814
6.4721	2.4365
6.424	2.3914
6.3766	2.3511
6.3299	2.3181
6.2838	2.3159
6.2385	2.3418
6.1937	2.3772
6.1496	2.406
6.1062	2.4224
6.0633	2.415
6.0211	2.4153
5.9794	2.4646
5.9383	2.5422
5.8978	2.603
5.8578	2.6531
5.8184	2.6938
5.7794	2.7134
5.741	2.6992
5.7031	2.6738
5.6657	2.6706
5.6288	2.6958
5.5924	2.7363
5.5564	2.7732
5.5209	2.7825
5.4859	2.7849
5.4513	2.8003
5.4171	2.8198
5.3833	2.8435
5.35	2.8577
5.3171	2.865
5.2846	2.8706
5.2524	2.876
5.2207	2.8813
5.1893	2.8782
5.1584	2.8762
5.1277	2.8779
5.0975	2.8855
5.0676	2.8982
5.038	2.9109
5.0088	2.9277
4.98	2.9414
4.9514	2.9517
4.9232	2.9646
4.8953	2.9773
4.8678	2.9902
4.8405	2.9988
4.8135	3.0102
4.7868	3.0215
4.7605	3.0278
4.7344	3.0393
4.7086	3.0513
4.6831	3.0539
4.6578	3.062
4.6328	3.0671
4.6081	3.0806
4.5837	3.0872
4.5595	3.0925
4.5356	3.0976
4.5119	3.1023
4.4884	3.1064
4.4652	3.1081
4.4423	3.1091
4.4196	3.1138
4.3971	3.1121
4.3748	3.1081
4.3528	3.1096
4.331	3.1089
4.3094	3.1067
4.288	3.1069
4.2668	3.1062
4.2458	3.1047
4.2251	3.1057
4.2045	3.1067
4.1841	3.1025
4.164	3.1025
4.144	3.0991
4.1242	3.0959
4.1046	3.095
4.0852	3.0913
4.066	3.094
4.047	3.0879
4.0281	3.0893
4.0094	3.0857
3.9909	3.0832
3.9725	3.0788
3.9544	3.0703
3.9363	3.0676
3.9185	3.0603
3.9008	3.0579
3.8833	3.0522
3.8659	3.0444
3.8487	3.0351
3.8316	3.0266
3.8147	3.0222
3.7979	3.0139
3.7813	3.0088
3.7648	2.998
3.7485	2.9922
3.7323	2.9802
3.7162	2.9692
3.7003	2.9624
3.6845	2.9524
3.6689	2.9416
3.6534	2.9297
3.638	2.9216
3.6227	2.915
3.6076	2.9055
3.5926	2.8928
3.5777	2.8813
3.563	2.8686
3.5484	2.8567
3.5338	2.8413
3.5195	2.8198
3.5052	2.7873
3.491	2.7725
3.477	2.7666
3.463	2.7644
3.4492	2.7478
3.4355	2.719
3.4219	2.6763
3.4084	2.6643
3.395	2.6733
3.3817	2.6587
3.3685	2.6545
3.3554	2.6621
3.3425	2.6558
3.3296	2.647
3.3168	2.6333
3.3041	2.6145
3.2915	2.5994
3.279	2.584
3.2666	2.5664
3.2543	2.552
3.2421	2.5366
3.23	2.5207
3.218	2.498
3.206	2.4812
3.1942	2.4678
3.1824	2.4543
3.1707	2.4336
3.1591	2.4204
3.1476	2.4043
3.1362	2.3911
3.1249	2.3752
3.1136	2.3611
3.1024	2.3552
3.0913	2.3442
3.0803	2.3342
3.0694	2.3206
3.0585	2.3171
3.0477	2.3086
3.037	2.2954
3.0264	2.2866
3.0158	2.279
3.0053	2.2771
2.9949	2.2681
2.9845	2.2595
2.9743	2.2524
2.9641	2.2444
2.9539	2.2461
2.9439	2.2454
2.9339	2.241
2.9239	2.2436
2.9141	2.2446
2.9043	2.2439
2.8946	2.2456
2.8849	2.2527
2.8753	2.2563
2.8658	2.2627
2.8563	2.281
2.8469	2.2883
2.8375	2.3086
2.8282	2.3242
2.819	2.3393
2.8098	2.3538
2.8007	2.3821
2.7917	2.3989
2.7827	2.4289
2.7738	2.4514
2.7649	2.4729
2.7561	2.4973
2.7473	2.5183
2.7386	2.5454
2.7299	2.5603
2.7213	2.5767
2.7128	2.5791
2.7043	2.5935
2.6959	2.603
2.6875	2.6062
2.6791	2.6072
2.6709	2.6023
2.6626	2.5981
2.6545	2.5964
2.6463	2.5913
2.6382	2.595
2.6302	2.5789
2.6222	2.5723
2.6143	2.5708
2.6064	2.5662
2.5986	2.5622
2.5908	2.5586
2.583	2.5535
2.5753	2.541
2.5677	2.5339
2.5601	2.522
2.5525	2.5227
2.545	2.5151
2.5375	2.5081
2.5301	2.5054
2.5227	2.4888
2.5154	2.4797
2.5081	2.4717
2.5008	2.4656
2.4936	2.4648
2.4864	2.4595
2.4793	2.4495
2.4722	2.4475
2.4651	2.4443
2.4581	2.4375
2.4511	2.4336
2.4442	2.4311
2.4373	2.4226
2.4305	2.4228
2.4236	2.4226
2.4169	2.4082
2.4101	2.4075
2.4034	2.4075
2.3967	2.3972
2.3901	2.3945
2.3835	2.3855
2.377	2.387
2.3704	2.3689
2.364	2.3677
2.3575	2.3594
2.3511	2.3606
2.3447	2.3569
2.3384	2.3503
2.3321	2.3484
2.3258	2.3372
2.3195	2.3415
2.3133	2.3303
2.3071	2.3232
2.301	2.321
2.2949	2.3206
2.2888	2.3137
2.2828	2.314
2.2767	2.314
2.2708	2.313
2.2648	2.3074
2.2589	2.3098
2.253	2.3057
2.2471	2.2964
2.2413	2.2988
2.2355	2.2996
2.2297	2.2888
2.224	2.2895
2.2183	2.2866
2.2126	2.2869
2.207	2.2854
2.2013	2.2888
2.1957	2.2771
2.1902	2.2766
2.1846	2.2795
2.1791	2.2786
2.1736	2.2744
2.1682	2.2783
2.1628	2.2834
2.1574	2.2698
2.152	2.2842
2.1466	2.2844
2.1413	2.2832
2.136	2.2651
2.1308	2.2678
2.1255	2.2725
2.1203	2.2583
2.1151	2.282
2.11	2.2659
2.1048	2.2893
2.0997	2.2661
2.0946	2.2864
2.0895	2.2768
2.0845	2.2805
2.0795	2.2917
