Name: Olivine (Fo92) (Fe+2,Mg)2SiO4
Type: Mineral
Class: Silicates
Subclass: Nesosilicates (Isolated tetrahedra); (Olivine Group)
Particle Size: Solid
Sample No.: olivine.13
Owner: JHU
Wavelength Range: IR
Origin: Rockport, Massachusetts via the Smithsonian (sample no.
Description: The sample was a large black fragment. Millimeter-wide
Measurement: Bidirectional reflectance
X Units: Wavelength (micrometers)
Y Units: Reflectance (percent)
wavelength	value
25.0442	5.6973
24.3388	5.6731
23.6719	6.2312
23.0407	6.8379
22.4422	7.667
21.8741	8.7817
21.334	11.7055
20.8199	12.9878
20.33	13.6833
19.8627	14.3027
19.4163	13.9116
18.9896	11.9233
18.5812	8.9038
18.19	7.001
17.815	8.0808
17.4551	8.8564
17.1094	9.0051
16.7772	7.6811
16.4576	5.0627
16.15	3.72
15.8537	3.967
15.568	4.1475
15.2925	4.4253
15.0265	4.5183
14.7697	4.6382
14.5214	4.779
14.2814	4.9565
14.0492	5.0178
13.8244	5.1164
13.6067	5.249
13.3957	5.4092
13.1912	5.6042
12.9929	5.8359
12.8004	5.959
12.6135	6.1777
12.432	6.5376
12.2557	6.9717
12.0843	8.0117
11.9176	7.2014
11.7555	8.884
11.5977	11.5949
11.444	13.1296
11.2944	14.3112
11.1487	16.0568
11.0067	16.281
10.8682	11.6186
10.7332	11.8659
10.6015	16.4585
10.473	15.4069
10.3476	11.063
10.2251	10.8078
10.1056	11.1977
9.98873	11.6574
9.87458	11.6162
9.763	10.5456
9.65392	8.5512
9.54724	6.0698
9.44291	4.071
9.34082	3.4006
9.24091	3.4194
9.14312	3.634
9.04739	3.5176
8.95363	3.2964
8.8618	3.4121
8.77183	3.5298
8.68368	3.5225
8.59727	3.3796
8.51257	3.3013
8.42951	3.2685
8.34807	3.2727
8.26819	3.3232
8.18981	3.3723
8.11292	3.4216
8.03745	3.4744
7.96337	3.5234
7.89064	3.5845
7.81924	3.6465
7.74911	3.6904
7.68023	3.7463
7.61256	3.7939
7.54608	3.8347
7.48074	3.8667
7.41653	3.9053
7.35341	3.936
7.29136	3.9521
7.23034	3.9709
7.17033	3.9863
7.11132	4.0181
7.05327	4.0222
6.99616	4.0471
6.93996	4.0662
6.88467	4.0798
6.83024	4.0901
6.77667	4.1035
6.72393	4.123
6.67201	4.1218
6.62089	4.1338
6.57054	4.1372
6.52095	4.1662
6.4721	4.1775
6.42398	4.1802
6.37657	4.2217
6.32986	4.241
6.28382	4.2517
6.23845	4.2705
6.19373	4.2588
6.14965	4.2605
6.10619	4.2493
6.06334	4.2576
6.02109	4.2729
5.97942	4.2754
5.93832	4.26
5.89778	4.2698
5.8578	4.3015
5.81835	4.2876
5.77943	4.302
5.74103	4.2986
5.70314	4.2939
5.66574	4.3059
5.62883	4.314
5.5924	4.3223
5.55644	4.3242
5.52093	4.3435
5.48588	4.3459
5.45127	4.362
5.41709	4.3672
5.38334	4.3769
5.35	4.3696
5.31708	4.3955
5.28456	4.4138
5.25243	4.4219
5.2207	4.4162
5.18934	4.4377
5.15836	4.4465
5.12775	4.4634
5.09749	4.467
5.0676	4.4697
5.03805	4.4719
5.00884	4.4741
4.97998	4.4712
4.95144	4.4888
4.92322	4.4919
4.89533	4.5
4.86775	4.4988
4.84048	4.52
4.81351	4.5261
4.78684	4.5393
4.76047	4.541
4.73439	4.5508
4.70859	4.5554
4.68306	4.5662
4.65782	4.5676
4.63284	4.5781
4.60814	4.5869
4.58369	4.5984
4.5595	4.6055
4.53557	4.615
4.51188	4.6225
4.48845	4.6267
4.46525	4.6355
4.44229	4.6372
4.41957	4.6582
4.39708	4.6643
4.37481	4.6745
4.35277	4.6782
4.33096	4.697
4.30935	4.7016
4.28797	4.7034
4.26679	4.7146
4.24583	4.718
4.22506	4.7307
4.2045	4.7388
4.18414	4.7554
4.16398	4.7634
4.14401	4.7737
4.12423	4.7761
4.10464	4.7847
4.08523	4.79
4.066	4.7939
4.04696	4.8037
4.02809	4.8186
4.0094	4.8191
3.99088	4.8269
3.97253	4.8491
3.95435	4.8423
3.93634	4.8537
3.91848	4.8796
3.90079	4.8801
3.88326	4.8931
3.86589	4.897
3.84867	4.9087
3.8316	4.916
3.81468	4.9309
3.79791	4.9353
3.78129	4.9397
3.76482	4.9541
3.74848	4.9497
3.73229	4.9756
3.71624	4.9744
3.70032	4.9792
3.68454	4.9875
3.6689	4.9873
3.65338	4.9883
3.638	5.0122
3.62275	5.0049
3.60762	5.0068
3.59262	5.0188
3.57775	5.0393
3.56299	5.053
3.54836	5.0344
3.53385	5.0603
3.51945	5.0561
3.50517	5.0769
3.49101	5.0759
3.47696	5.0835
3.46303	5.0991
3.4492	5.1201
3.43549	5.1077
3.42188	5.124
3.40838	5.1189
3.39499	5.1018
3.38171	5.1233
3.36852	5.1299
3.35544	5.1257
3.34246	5.1247
3.32958	5.1282
3.3168	5.1277
3.30411	5.1489
3.29153	5.1506
3.27903	5.1521
3.26664	5.1609
3.25433	5.1423
3.24212	5.1443
3.23	5.1543
3.21797	5.1504
3.20603	5.1662
3.19418	5.1531
3.18241	5.1597
3.17074	5.1533
3.15914	5.1631
3.14763	5.1682
3.13621	5.1477
3.12487	5.1401
3.11361	5.1487
3.10243	5.1543
3.09133	5.1413
3.0803	5.1504
3.06936	5.1384
3.0585	5.1286
3.04771	5.1504
3.037	5.1377
3.02636	5.1138
3.0158	5.103
3.00531	5.0852
2.99489	5.0876
2.98454	5.093
2.97427	5.0642
2.96407	5.064
2.95393	5.0525
2.94387	5.0354
2.93387	5.0493
2.92394	5.0229
2.91408	5.0144
2.90429	5.0349
2.89456	5.0439
2.88489	5.0203
2.87529	5.0078
2.86576	5.032
2.85628	5.0019
2.84687	4.989
2.83752	4.9385
2.82823	4.887
2.81901	4.8413
2.80984	4.8035
2.80073	4.7771
2.79168	4.7441
2.78269	4.7185
2.77376	4.7007
2.76488	4.6291
2.75606	4.6582
2.7473	4.769
2.73859	4.9983
2.72994	5.2698
2.72134	5.3403
2.7128	5.3982
2.70431	5.4128
2.69587	5.3911
2.68748	5.4177
2.67915	5.415
2.67087	5.3865
2.66264	5.3938
2.65446	5.414
2.64633	5.4136
2.63825	5.4126
2.63021	5.3701
2.62223	5.4238
2.6143	5.395
2.60641	5.3738
2.59857	5.4285
2.59078	5.4336
2.58304	5.4116
2.57534	5.4321
2.56768	5.4236
2.56008	5.4321
2.55251	5.4067
2.54499	5.4287
2.53752	5.4346
2.53009	5.4475
2.5227	5.4333
2.51536	5.4394
2.50806	5.4402
2.5008	5.4534
2.49358	5.4775
2.4864	5.4609
2.47927	5.4702
2.47218	5.499
2.46512	5.4736
2.45811	5.5049
2.45114	5.4936
2.4442	5.4848
2.43731	5.4897
2.43045	5.499
2.42363	5.5366
2.41685	5.5556
2.41011	5.5591
2.40341	5.5708
2.39674	5.5376
2.39011	5.5381
2.38352	5.5605
2.37696	5.5693
2.37044	5.5549
2.36395	5.5718
2.35751	5.5286
2.35109	5.5508
2.34471	5.5437
2.33836	5.5513
2.33205	5.5635
2.32578	5.5576
2.31953	5.5691
2.31332	5.5823
2.30714	5.5683
2.301	5.6081
2.29489	5.6492
2.28881	5.6035
2.28276	5.5896
2.27675	5.6196
2.27076	5.6142
2.26481	5.6367
2.25889	5.6474
2.253	5.6426
2.24714	5.6301
2.24131	5.6506
2.23551	5.6955
2.22974	5.6623
2.224	5.6645
2.21829	5.7065
2.21261	5.7036
2.20696	5.6789
2.20134	5.6777
2.19574	5.6855
2.19018	5.6821
2.18464	5.6806
2.17913	5.7275
2.17365	5.7051
2.16819	5.7356
2.16277	5.6741
2.15737	5.7278
2.15199	5.6877
2.14665	5.7256
2.14133	5.7024
2.13603	5.7129
2.13077	5.7505
2.12552	5.7334
2.12031	5.7385
2.11512	5.7512
2.10995	5.7532
2.10481	5.791
2.0997	5.8047
2.09461	5.7905
2.08954	5.7795
2.0845	5.7453
2.07948	5.7219
