Name: Olivine (Fo92) (Fe+2,Mg)2SiO4
Type: Mineral
Class: Silicates
Subclass: Nesosilicates (Isolated tetrahedra); (Olivine Group)
Particle Size: Fine  (Less than 2  Micrometer)
Sample No.: olivine.13
Owner: JHU
Wavelength Range: IR
Origin: Rockport, Massachusetts via the Smithsonian (sample no.
Description: The sample was a large black fragment. Millimeter-wide
Measurement: Transmission
X Units: Wavelength (micrometers)
Y Units: Transmittance (percent)
wavelength	value
25.0442	81.5857
24.3388	79.8045
23.6719	77.9646
23.0407	76.3533
22.4422	69.6375
21.8741	61.9881
21.334	48.6307
20.8199	46.3124
20.33	51.3143
19.8627	51.9042
19.4163	55.1961
18.9896	63.3363
18.5812	67.2342
18.19	62.8812
17.815	57.8807
17.4551	61.6434
17.1094	71.7581
16.7772	79.5437
16.4576	83.094
16.15	84.5887
15.8537	85.7171
15.568	88.0691
15.2925	88.5515
15.0265	88.4807
14.7697	88.0076
14.5214	86.1956
14.2814	84.1175
14.0492	83.0335
13.8244	81.5691
13.6067	80.5467
13.3957	78.3167
13.1912	76.0293
12.9929	73.3028
12.8004	71.3216
12.6135	68.9288
12.432	65.1483
12.2557	59.6107
12.0843	48.5653
11.9176	57.9383
11.7555	46.3253
11.5977	34.7646
11.444	28.6415
11.2944	32.7267
11.1487	37.4267
11.0067	41.5431
10.8682	42.3095
10.7332	55.3314
10.6015	38.7187
10.473	39.8898
10.3476	41.7162
10.2251	47.639
10.1056	53.2504
9.98873	58.1163
9.87458	63.0772
9.763	67.2943
9.65392	71.168
9.54724	74.1121
9.44291	75.8118
9.34082	76.5916
9.24091	78.0008
9.14312	81.1631
9.04739	84.2344
8.95363	85.6094
8.8618	85.2512
8.77183	86.6475
8.68368	88.1309
8.59727	89.1936
8.51257	89.949
8.42951	90.6492
8.34807	91.448
8.26819	92.2034
8.18981	92.51
8.11292	92.742
8.03745	92.7149
7.96337	92.5754
7.89064	92.5999
7.81924	92.5701
7.74911	92.3709
7.68023	92.2473
7.61256	92.2468
7.54608	92.0632
7.48074	91.8735
7.41653	91.6087
7.35341	91.4649
7.29136	91.1516
7.23034	90.4251
7.17033	90.073
7.11132	89.7639
7.05327	89.7351
6.99616	89.2146
6.93996	87.9983
6.88467	88.1511
6.83024	88.7891
6.77667	88.7617
6.72393	88.6643
6.67201	88.7449
6.62089	88.6477
6.57054	88.3567
6.52095	88.0198
6.4721	87.6223
6.42398	87.1092
6.37657	86.6941
6.32986	86.1184
6.28382	85.3689
6.23845	83.8614
6.19373	81.9632
6.14965	81.1155
6.10619	82.0799
6.06334	82.4275
6.02109	81.2918
5.97942	81.097
5.93832	83.553
5.89778	84.9549
5.8578	85.2815
5.81835	85.0681
5.77943	84.907
5.74103	84.8054
5.70314	84.6951
5.66574	84.7605
5.62883	84.5335
5.5924	84.4881
5.55644	84.366
5.52093	84.2561
5.48588	84.2073
5.45127	84.1145
5.41709	83.9519
5.38334	83.8968
5.35	83.7195
5.31708	83.7356
5.28456	83.596
5.25243	83.4568
5.2207	83.3626
5.18934	83.262
5.15836	83.1614
5.12775	83.0862
5.09749	82.9305
5.0676	82.7889
5.03805	82.7044
5.00884	82.6109
4.97998	82.4568
4.95144	82.418
4.92322	82.2381
4.89533	82.1385
4.86775	82.0332
4.84048	81.9546
4.81351	81.751
4.78684	81.6634
4.76047	81.5603
4.73439	81.4261
4.70859	81.3096
4.68306	81.1932
4.65782	81.1219
4.63284	81.0389
4.60814	80.9651
4.58369	80.857
4.5595	80.688
4.53557	80.5994
4.51188	80.4617
4.48845	80.3728
4.46525	80.3116
4.44229	80.1595
4.41957	80.086
4.39708	80.0098
4.37481	79.8953
4.35277	79.7757
4.33096	79.6753
4.30935	79.5498
4.28797	79.43
4.26679	79.3262
4.24583	79.2139
4.22506	79.1526
4.2045	79.0647
4.18414	78.9803
4.16398	78.8372
4.14401	78.7288
4.12423	78.6409
4.10464	78.5791
4.08523	78.4444
4.066	78.3538
4.04696	78.2852
4.02809	78.1434
4.0094	78.0018
3.99088	77.8301
3.97253	77.751
3.95435	77.7093
3.93634	77.5877
3.91848	77.5403
3.90079	77.5228
3.88326	77.2962
3.86589	77.1556
3.84867	77.0623
3.8316	76.9825
3.81468	76.8733
3.79791	76.7996
3.78129	76.6531
3.76482	76.5823
3.74848	76.5062
3.73229	76.4073
3.71624	76.2596
3.70032	76.1124
3.68454	76.0479
3.6689	75.9021
3.65338	75.8133
3.638	75.8213
3.62275	75.6565
3.60762	75.5528
3.59262	75.4034
3.57775	75.3428
3.56299	75.1194
3.54836	75.0955
3.53385	75.0135
3.51945	74.9437
3.50517	74.6924
3.49101	74.6993
3.47696	74.6287
3.46303	74.6456
3.4492	74.472
3.43549	74.2908
3.42188	74.0154
3.40838	73.9444
3.39499	73.8963
3.38171	73.7078
3.36852	73.742
3.35544	73.4883
3.34246	73.4493
3.32958	73.4444
3.3168	73.2803
3.30411	73.1797
3.29153	73.0032
3.27903	72.8751
3.26664	72.7354
3.25433	72.6795
3.24212	72.504
3.23	72.2752
3.21797	72.0804
3.20603	72.0003
3.19418	71.7747
3.18241	71.6136
3.17074	71.4637
3.15914	71.3987
3.14763	71.0032
3.13621	70.7191
3.12487	70.3201
3.11361	70.1634
3.10243	70.3118
3.09133	70.2318
3.0803	69.994
3.06936	69.6849
3.0585	69.6805
3.04771	69.826
3.037	69.6278
3.02636	69.2332
3.0158	68.576
3.00531	68.2723
2.99489	67.9217
2.98454	67.6697
2.97427	67.1082
2.96407	66.4364
2.95393	65.868
2.94387	65.1702
2.93387	64.745
2.92394	64.3402
2.91408	64.1815
2.90429	64.0955
2.89456	64.4808
2.88489	64.8289
2.87529	65.0023
2.86576	65.286
2.85628	65.8758
2.84687	66.1702
2.83752	66.2186
2.82823	66.4354
2.81901	66.5731
2.80984	66.6571
2.80073	66.7362
2.79168	66.8441
2.78269	67.0643
2.77376	67.1365
2.76488	66.2996
2.75606	67.9569
2.7473	68.1649
2.73859	68.5604
2.72994	68.5784
2.72134	68.5994
2.7128	68.3148
2.70431	68.3499
2.69587	68.3904
2.68748	68.5604
2.67915	68.3201
2.67087	68.2757
2.66264	68.1234
2.65446	68.0018
2.64633	67.7772
2.63825	67.9627
2.63021	67.7913
2.62223	67.723
2.6143	67.617
2.60641	67.43
2.59857	67.3592
2.59078	67.3514
2.58304	67.3231
2.57534	67.0946
2.56768	66.9608
2.56008	66.8406
2.55251	66.8846
2.54499	66.7274
2.53752	66.7098
2.53009	66.6102
2.5227	66.4198
2.51536	66.2772
2.50806	66.6864
2.5008	66.4393
2.49358	66.2655
2.4864	66.1854
2.47927	66.0252
2.47218	65.8934
2.46512	65.8914
2.45811	65.9012
2.45114	65.7635
2.4442	65.4813
2.43731	65.6658
2.43045	65.4696
2.42363	65.5623
2.41685	65.408
2.41011	65.5311
2.40341	65.2586
2.39674	65.0096
2.39011	64.9852
2.38352	65.1092
2.37696	65.0174
2.37044	64.95
2.36395	64.6366
2.35751	64.7616
2.35109	64.742
2.34471	64.6649
2.33836	64.5623
2.33205	64.4412
2.32578	64.4071
2.31953	64.076
2.31332	64.3875
2.30714	64.3553
2.301	64.3602
2.29489	63.994
2.28881	64.1073
2.28276	63.868
2.27675	63.7821
2.27076	64.0672
2.26481	64.0506
2.25889	63.4149
2.253	63.7108
2.24714	63.7694
2.24131	63.4149
2.23551	63.8524
2.22974	63.1141
2.224	63.4022
2.21829	63.5741
2.21261	63.2635
2.20696	62.8836
2.20134	63.2977
2.19574	62.9608
2.19018	63.5623
2.18464	62.7596
2.17913	62.9666
2.17365	62.9139
2.16819	62.9198
2.16277	63.1561
2.15737	62.7049
2.15199	62.6795
2.14665	62.6014
2.14133	62.5409
2.13603	62.5057
2.13077	62.533
2.12552	62.7303
2.12031	62.5955
2.11512	62.2616
2.10995	62.742
2.10481	62.2752
2.0997	62.4373
2.09461	62.3787
2.08954	61.9354
2.0845	62.3338
2.07948	62.2655
