Name: Natrolite Na2Al2Si3O10.2H2O
Type: Mineral
Class: Silicates
Subclass: Tectosilicates (Framework Silicates); (ZeoliteGroup)
Particle Size: Coarse  (75-250  Micrometers)
Sample No.: natrol.1
Owner: JHU
Wavelength Range: IR
Origin: Poonah, India via Hunt and Salisbury Collection #169B
Description: The sample appeared to be pure natrolite, although most
Measurement: Bidirectional reflectance
X Units: Wavelength (micrometers)
Y Units: Reflectance (percent)
wavelength	value
25.0442	2.2983
24.3388	3.1545
23.6719	4.0591
23.0407	2.4099
22.4422	2.4314
21.8741	1.154
21.334	1.5693
20.8199	2.1794
20.33	2.6877
19.8627	2.2827
19.4163	2.0417
18.9896	1.4128
18.5812	1.5889
18.19	1.7266
17.815	1.5881
17.4551	1.5454
17.1094	1.4582
16.7772	1.7876
16.4576	1.7407
16.15	1.9604
15.8537	2.2683
15.568	1.7756
15.2925	1.4375
15.0265	1.321
14.7697	1.1399
14.5214	1.0708
14.2814	0.8887
14.0492	0.6794
13.8244	0.7478
13.6067	0.6846
13.3957	0.8484
13.1912	0.9487
12.9929	1.0359
12.8004	1.145
12.6135	1.2205
12.432	1.3008
12.2557	1.3564
12.0843	1.3994
11.9176	1.4973
11.7555	1.5305
11.5977	1.5923
11.444	1.6494
11.2944	1.7227
11.1487	1.7952
11.0067	1.8967
10.8682	2.0352
10.7332	2.1655
10.6015	2.366
10.473	2.7749
10.3476	3.7234
10.2251	3.6489
10.1056	4.8035
9.98873	5.0439
9.87458	5.0752
9.763	2.9402
9.65392	1.3076
9.54724	3.2854
9.44291	3.9275
9.34082	3.0225
9.24091	3.2473
9.14312	4.4863
9.04739	4.5832
8.95363	5.6548
8.8618	5.5466
8.77183	4.7778
8.68368	3.7217
8.59727	2.5225
8.51257	1.4031
8.42951	0.6331
8.34807	0.2371
8.26819	0.116
8.18981	0.1072
8.11292	0.1514
8.03745	0.2002
7.96337	0.2524
7.89064	0.2952
7.81924	0.342
7.74911	0.376
7.68023	0.4294
7.61256	0.467
7.54608	0.5139
7.48074	0.5627
7.41653	0.5964
7.35341	0.6223
7.29136	0.6589
7.23034	0.6985
7.17033	0.7295
7.11132	0.76
7.05327	0.8
6.99616	0.8601
6.93996	0.8809
6.88467	0.8938
6.83024	0.9285
6.77667	0.9658
6.72393	1.0078
6.67201	1.0425
6.62089	1.093
6.57054	1.1018
6.52095	1.1003
6.4721	1.0867
6.42398	1.0513
6.37657	0.9993
6.32986	0.9348
6.28382	0.8877
6.23845	0.8372
6.19373	0.7869
6.14965	0.7119
6.10619	0.6433
6.06334	0.7322
6.02109	0.8828
5.97942	1.0251
5.93832	1.1018
5.89778	1.1248
5.8578	1.1506
5.81835	1.1599
5.77943	1.2249
5.74103	1.311
5.70314	1.4019
5.66574	1.5054
5.62883	1.5903
5.5924	1.6899
5.55644	1.7747
5.52093	1.7981
5.48588	1.8237
5.45127	1.9341
5.41709	2.1206
5.38334	2.343
5.35	2.5078
5.31708	2.7356
5.28456	3.0181
5.25243	3.1567
5.2207	3.0425
5.18934	2.9617
5.15836	2.9661
5.12775	2.7424
5.09749	2.6038
5.0676	2.4431
5.03805	2.3052
5.00884	2.5549
4.97998	2.7895
4.95144	2.8967
4.92322	2.7756
4.89533	2.551
4.86775	2.4077
4.84048	2.2876
4.81351	2.1248
4.78684	1.8894
4.76047	1.5842
4.73439	1.2681
4.70859	1.0625
4.68306	0.969
4.65782	0.9705
4.63284	1.1216
4.60814	1.4524
4.58369	1.8372
4.5595	2.0796
4.53557	2.2788
4.51188	2.5124
4.48845	2.8164
4.46525	3.199
4.44229	3.6262
4.41957	3.9731
4.39708	4.1921
4.37481	4.3208
4.35277	4.4526
4.33096	4.5696
4.30935	4.6455
4.28797	4.7615
4.26679	4.9524
4.24583	5.1614
4.22506	5.3398
4.2045	5.4661
4.18414	5.5979
4.16398	5.8152
4.14401	6.1306
4.12423	6.3813
4.10464	6.53
4.08523	6.6118
4.066	6.6225
4.04696	6.5456
4.02809	6.7068
4.0094	6.8003
3.99088	6.8345
3.97253	6.8586
3.95435	6.8642
3.93634	6.8603
3.91848	6.8335
3.90079	6.782
3.88326	6.7097
3.86589	6.581
3.84867	6.4148
3.8316	6.2466
3.81468	6.281
3.79791	6.2031
3.78129	6.1472
3.76482	6.0742
3.74848	5.9641
3.73229	5.793
3.71624	5.6191
3.70032	5.4536
3.68454	5.2959
3.6689	5.1973
3.65338	5.1479
3.638	5.1289
3.62275	5.1152
3.60762	5.0491
3.59262	4.9219
3.57775	4.7485
3.56299	4.5493
3.54836	4.3569
3.53385	4.1658
3.51945	3.9773
3.50517	3.7878
3.49101	3.613
3.47696	3.4106
3.46303	3.2309
3.4492	3.0535
3.43549	2.8711
3.42188	2.6882
3.40838	2.5168
3.39499	2.3442
3.38171	2.1577
3.36852	1.9912
3.35544	1.8269
3.34246	1.6733
3.32958	1.5422
3.3168	1.4355
3.30411	1.3525
3.29153	1.2954
3.27903	1.2541
3.26664	1.217
3.25433	1.1663
3.24212	1.1428
3.23	1.127
3.21797	1.0991
3.20603	1.0649
3.19418	1.0139
3.18241	0.9951
3.17074	0.9497
3.15914	0.9087
3.14763	0.8791
3.13621	0.8645
3.12487	0.8672
3.11361	0.8652
3.10243	0.8652
3.09133	0.8721
3.0803	0.8887
3.06936	0.8882
3.0585	0.8899
3.04771	0.8674
3.037	0.8369
3.02636	0.7932
3.0158	0.7258
3.00531	0.658
2.99489	0.6384
2.98454	0.6516
2.97427	0.6973
2.96407	0.7102
2.95393	0.717
2.94387	0.7273
2.93387	0.7507
2.92394	0.7473
2.91408	0.7698
2.90429	0.7852
2.89456	0.7917
2.88489	0.7942
2.87529	0.8025
2.86576	0.8262
2.85628	0.8198
2.84687	0.7957
2.83752	0.7292
2.82823	0.6165
2.81901	0.4753
2.80984	0.4871
2.80073	0.5579
2.79168	0.6323
2.78269	0.6814
2.77376	0.7393
2.76488	0.7805
2.75606	0.8384
2.7473	0.9243
2.73859	1.0615
2.72994	1.3259
2.72134	1.8579
2.7128	2.5923
2.70431	3.2666
2.69587	3.7319
2.68748	3.9573
2.67915	4.001
2.67087	4.0906
2.66264	4.3125
2.65446	4.5019
2.64633	4.5708
2.63825	4.6641
2.63021	4.8989
2.62223	5.1599
2.6143	5.2683
2.60641	5.1579
2.59857	4.875
2.59078	4.5273
2.58304	4.5224
2.57534	4.9355
2.56768	5.4282
2.56008	5.8938
2.55251	6.3056
2.54499	6.6501
2.53752	6.8074
2.53009	6.8916
2.5227	6.9573
2.51536	6.9878
2.50806	7.0801
2.5008	7.0688
2.49358	6.927
2.4864	6.6521
2.47927	6.2427
2.47218	5.7837
2.46512	5.4612
2.45811	5.438
2.45114	5.4846
2.4442	5.2705
2.43731	4.8928
2.43045	4.7646
2.42363	5.0373
2.41685	5.5991
2.41011	6.2041
2.40341	6.7585
2.39674	7.1321
2.39011	7.3511
2.38352	7.4739
2.37696	7.5837
2.37044	7.7651
2.36395	7.9638
2.35751	8.1042
2.35109	8.2278
2.34471	8.3152
2.33836	8.4702
2.33205	8.5923
2.32578	8.7099
2.31953	8.8374
2.31332	8.9463
2.30714	9.0134
2.301	9.0622
2.29489	9.0539
2.28881	8.9931
2.28276	8.9038
2.27675	8.8388
2.27076	8.884
2.26481	8.9485
2.25889	9.0217
2.253	9.0361
2.24714	9.0056
2.24131	8.9287
2.23551	8.8879
2.22974	8.7793
2.224	8.5879
2.21829	8.4145
2.21261	8.1714
2.20696	7.9045
2.20134	7.7182
2.19574	7.7204
2.19018	7.8349
2.18464	8.0527
2.17913	8.167
2.17365	8.209
2.16819	8.2617
2.16277	8.2597
2.15737	8.3301
2.15199	8.3313
2.14665	8.3708
2.14133	8.427
2.13603	8.3894
2.13077	8.3711
2.12552	8.3425
2.12031	8.2392
2.11512	8.1186
2.10995	7.9663
2.10481	7.759
2.0997	7.5544
2.09461	7.2993
2.08954	7.1887
2.0845	7.1055
2.07948	7.0952
