Name: Goethite a-Fe+3O(OH)
Type: Mineral
Class: Hydroxides
Subclass: (Goethite Group)
Particle Size: Fine (less than 2 micrometers)
Sample No.: goethite.2
Owner: JHU
Wavelength Range: IR
Origin: Sample from Calavi, Bolivia via the Smithsonian (sample no.
Description: The sample was a 2 cm x 2 cm x 2 cm layered botryoidal
Measurement: Transmission
X Units: Wavelength (micrometers)
Y Units: Transmittance (percent)
wavelength	value
25.0442	38.7069
24.3388	32.0351
23.6719	31.6249
23.0407	32.8642
22.4422	33.2109
21.8741	31.4296
21.334	31.623
20.8199	34.0487
20.33	38.4833
19.8627	44.8847
19.4163	50.7425
18.9896	54.3573
18.5812	56.7816
18.19	57.9666
17.815	57.7489
17.4551	56.9515
17.1094	55.3583
16.7772	53.9574
16.4576	53.6356
16.15	54.7914
15.8537	57.7547
15.568	61.8983
15.2925	65.0408
15.0265	65.6073
14.7697	67.8392
14.5214	71.6761
14.2814	73.9715
14.0492	76.3802
13.8244	78.3123
13.6067	78.7432
13.3957	77.8123
13.1912	75.2439
12.9929	70.5792
12.8004	64.2764
12.6135	59.0453
12.432	59.3299
12.2557	63.9998
12.0843	68.3067
11.9176	69.7364
11.7555	68.0391
11.5977	63.9005
11.444	58.7083
11.2944	55.1874
11.1487	56.3224
11.0067	61.8538
10.8682	68.5789
10.7332	73.6771
10.6015	76.949
10.473	78.5406
10.3476	79.3946
10.2251	80.0789
10.1056	80.981
9.98873	82.0208
9.87458	83.4168
9.763	84.6189
9.65392	85.6509
9.54724	86.677
9.44291	87.7422
9.34082	88.7283
9.24091	89.6384
9.14312	90.3291
9.04739	90.7178
8.95363	91.0488
8.8618	91.2507
8.77183	91.9541
8.68368	92.7222
8.59727	93.4648
8.51257	94.0811
8.42951	94.5615
8.34807	94.8455
8.26819	94.9583
8.18981	95.0491
8.11292	95.0701
8.03745	95.0125
7.96337	94.8823
7.89064	94.6838
7.81924	94.4583
7.74911	94.199
7.68023	93.72
7.61256	93.2542
7.54608	92.988
7.48074	92.6736
7.41653	92.5247
7.35341	92.4456
7.29136	92.426
7.23034	92.2664
7.17033	91.6506
7.11132	91.5193
7.05327	91.9143
6.99616	91.7722
6.93996	91.4822
6.88467	91.1443
6.83024	90.9387
6.77667	90.8728
6.72393	90.7107
6.67201	90.3743
6.62089	90.1062
6.57054	89.9622
6.52095	89.7439
6.4721	89.5071
6.42398	89.2014
6.37657	88.9075
6.32986	88.6233
6.28382	88.1013
6.23845	87.0784
6.19373	85.742
6.14965	84.989
6.10619	84.596
6.06334	85.1209
6.02109	86.3279
5.97942	87.3484
5.93832	88.0803
5.89778	88.4011
5.8578	88.3821
5.81835	88.3089
5.77943	88.1233
5.74103	87.991
5.70314	87.6883
5.66574	87.3772
5.62883	87.1868
5.5924	87.1404
5.55644	87.2068
5.52093	87.3333
5.48588	87.4983
5.45127	87.5515
5.41709	87.6155
5.38334	87.4946
5.35	87.3509
5.31708	87.1541
5.28456	86.9705
5.25243	86.784
5.2207	86.5852
5.18934	86.4202
5.15836	86.2517
5.12775	86.0496
5.09749	85.826
5.0676	85.6634
5.03805	85.4905
5.00884	85.3059
4.97998	85.1385
4.95144	84.9702
4.92322	84.7637
4.89533	84.5979
4.86775	84.4575
4.84048	84.2991
4.81351	84.1267
4.78684	83.969
4.76047	83.8057
4.73439	83.586
4.70859	83.3721
4.68306	83.1568
4.65782	82.9903
4.63284	82.792
4.60814	82.5789
4.58369	82.3401
4.5595	82.1199
4.53557	81.9422
4.51188	81.6983
4.48845	81.4358
4.46525	81.2395
4.44229	81.0188
4.41957	80.7444
4.39708	80.5501
4.37481	80.344
4.35277	80.0894
4.33096	79.8091
4.30935	79.5535
4.28797	79.2776
4.26679	78.9925
4.24583	78.8194
4.22506	78.594
4.2045	78.2989
4.18414	78.0433
4.16398	77.7894
4.14401	77.5091
4.12423	77.2276
4.10464	76.9275
4.08523	76.6663
4.066	76.3621
4.04696	76.0901
4.02809	75.7559
4.0094	75.4881
3.99088	75.21
3.97253	74.877
3.95435	74.5799
3.93634	74.262
3.91848	73.9131
3.90079	73.492
3.88326	73.1329
3.86589	72.7569
3.84867	72.4197
3.8316	72.075
3.81468	71.7713
3.79791	71.3445
3.78129	70.9256
3.76482	70.553
3.74848	70.1082
3.73229	69.6378
3.71624	69.2342
3.70032	68.8272
3.68454	68.3944
3.6689	67.9222
3.65338	67.4942
3.638	67.0662
3.62275	66.5828
3.60762	66.1065
3.59262	65.64
3.57775	65.1915
3.56299	64.6837
3.54836	64.1873
3.53385	63.6837
3.51945	63.1329
3.50517	62.5472
3.49101	62.1182
3.47696	61.6358
3.46303	61.0843
3.4492	60.4774
3.43549	59.8895
3.42188	59.161
3.40838	58.6798
3.39499	58.1922
3.38171	57.5362
3.36852	56.8175
3.35544	56.0741
3.34246	55.2518
3.32958	54.3763
3.3168	53.4757
3.30411	52.4864
3.29153	51.4676
3.27903	50.3612
3.26664	49.2208
3.25433	47.9923
3.24212	46.7723
3.23	45.5167
3.21797	44.3507
3.20603	43.3146
3.19418	42.6132
3.18241	42.0824
3.17074	41.9047
3.15914	41.9091
3.14763	42.1278
3.13621	42.4335
3.12487	42.9628
3.11361	43.6879
3.10243	44.5116
3.09133	45.348
3.0803	46.1845
3.06936	47.1483
3.0585	47.9515
3.04771	48.6718
3.037	49.5184
3.02636	50.0936
3.0158	50.6156
3.00531	51.1586
2.99489	51.6112
2.98454	51.8807
2.97427	52.2352
2.96407	52.5101
2.95393	52.8851
2.94387	53.2909
2.93387	53.6937
2.92394	54.1913
2.91408	54.6805
2.90429	55.2933
2.89456	56.1273
2.88489	57.0877
2.87529	58.182
2.86576	59.1961
2.85628	60.3265
2.84687	61.3924
2.83752	62.369
2.82823	63.223
2.81901	64.1292
2.80984	65.0711
2.80073	66.0804
2.79168	67.0242
2.78269	67.9554
2.77376	68.6365
2.76488	69.0843
2.75606	69.307
2.7473	69.5355
2.73859	69.4422
2.72994	69.3455
2.72134	69.2684
2.7128	68.887
2.70431	68.5594
2.69587	68.119
2.68748	67.8748
2.67915	67.6409
2.67087	67.2596
2.66264	66.9652
2.65446	66.6346
2.64633	66.3363
2.63825	65.9984
2.63021	65.7811
2.62223	65.5765
2.6143	65.3382
2.60641	65.0604
2.59857	64.783
2.59078	64.5926
2.58304	64.2928
2.57534	64.0633
2.56768	63.7264
2.56008	63.4862
2.55251	63.3582
2.54499	63.076
2.53752	62.8172
2.53009	62.5536
2.5227	62.4188
2.51536	62.3016
2.50806	62.1014
2.5008	61.7713
2.49358	61.7069
2.4864	61.5975
2.47927	61.2479
2.47218	60.9549
2.46512	60.9715
2.45811	60.7323
2.45114	60.4452
2.4442	60.3446
2.43731	60.3397
2.43045	60.1805
2.42363	59.9022
2.41685	59.5721
2.41011	59.1727
2.40341	59.1346
2.39674	59.0077
2.39011	58.786
2.38352	58.6815
2.37696	58.4813
2.37044	58.4276
2.36395	58.329
2.35751	58.1844
2.35109	57.9803
2.34471	57.6581
2.33836	57.617
2.33205	57.3065
2.32578	57.1834
2.31953	57.1258
2.31332	56.9852
2.30714	56.8836
2.301	56.5096
2.29489	56.4334
2.28881	56.4706
2.28276	56.2967
2.27675	56.036
2.27076	55.8397
2.26481	55.7821
2.25889	55.5008
2.253	55.4149
2.24714	55.454
2.24131	55.2899
2.23551	54.9881
2.22974	55.0702
2.224	54.6961
2.21829	54.4149
2.21261	54.4491
2.20696	54.246
2.20134	53.9491
2.19574	54.1444
2.19018	53.8866
2.18464	53.6991
2.17913	53.5135
2.17365	53.41
2.16819	53.3553
2.16277	53.496
2.15737	53.2206
2.15199	52.9549
2.14665	52.4784
2.14133	52.3495
2.13603	52.2518
2.13077	52.3065
2.12552	52.0506
2.12031	52.0741
2.11512	51.9647
2.10995	51.6815
2.10481	51.5389
2.0997	51.6893
2.09461	51.6503
2.08954	51.5272
2.0845	51.2147
2.07948	51.0721
