Name: Erionite (K2,Ca,Na2)2Al4Si14O36.15H2O
Type: Mineral
Class: Silicates
Subclass: Tectosilicates  (Zeolite Group)
Particle Size: Solid (earthy surface)
Sample No.: erionite.1
Owner: JHU
Wavelength Range: IR
Origin: Donated by W. J. Ehmann;  Sample #15 from Rome, Oregon.
Description: The hand sample was a cream-colored, earthy mass.  As
Measurement: Bidirectional reflectance
X Units: Wavelength (micrometers)
Y Units: Reflectance (percent)
wavelength	value
25.0442	2.3887
24.3388	2.1792
23.6719	2.3894
23.0407	2.5801
22.4422	2.5644
21.8741	2.4678
21.334	2.6916
20.8199	2.4536
20.33	1.8542
19.8627	1.4673
19.4163	1.3188
18.9896	1.2808
18.5812	1.1638
18.19	1.0923
17.815	1.0662
17.4551	1.1077
17.1094	1.0388
16.7772	1.0193
16.4576	1.0225
16.15	1.0398
15.8537	1.0635
15.568	0.989
15.2925	0.9629
15.0265	1.0496
14.7697	1.0881
14.5214	1.1235
14.2814	1.1501
14.0492	1.1758
13.8244	1.1455
13.6067	1.1316
13.3957	1.2117
13.1912	1.2527
12.9929	1.2546
12.8004	1.2017
12.6135	1.1235
12.432	1.2519
12.2557	1.6255
12.0843	1.9692
11.9176	2.3086
11.7555	2.5278
11.5977	2.6304
11.444	2.7241
11.2944	2.8337
11.1487	2.9785
11.0067	3.0427
10.8682	3.0356
10.7332	2.9487
10.6015	2.7759
10.473	2.6392
10.3476	2.5366
10.2251	2.4546
10.1056	2.3777
9.98873	2.4045
9.87458	2.5254
9.763	2.7173
9.65392	2.9346
9.54724	3.0911
9.44291	3.1638
9.34082	3.114
9.24091	2.956
9.14312	2.7141
9.04739	2.449
8.95363	2.219
8.8618	2.0315
8.77183	1.9145
8.68368	1.8665
8.59727	1.8706
8.51257	1.9065
8.42951	1.9446
8.34807	1.8572
8.26819	1.6528
8.18981	1.4094
8.11292	1.1394
8.03745	0.8372
7.96337	0.5461
7.89064	0.4138
7.81924	0.3787
7.74911	0.426
7.68023	0.5278
7.61256	0.6416
7.54608	0.7852
7.48074	0.9414
7.41653	1.0854
7.35341	1.2436
7.29136	1.408
7.23034	1.5706
7.17033	1.718
7.11132	1.8538
7.05327	1.9751
6.99616	2.0908
6.93996	2.2319
6.88467	2.3572
6.83024	2.4763
6.77667	2.5703
6.72393	2.654
6.67201	2.7422
6.62089	2.8225
6.57054	2.8965
6.52095	2.97
6.4721	2.9883
6.42398	2.9531
6.37657	2.876
6.32986	2.6787
6.28382	2.3547
6.23845	1.8953
6.19373	1.3782
6.14965	1.0481
6.10619	0.9648
6.06334	0.9878
6.02109	1.1003
5.97942	1.3083
5.93832	1.6587
5.89778	2.1526
5.8578	2.7424
5.81835	3.2649
5.77943	3.6697
5.74103	3.9319
5.70314	4.0979
5.66574	4.1863
5.62883	4.2517
5.5924	4.3208
5.55644	4.4067
5.52093	4.5342
5.48588	4.6877
5.45127	4.8765
5.41709	5.0622
5.38334	5.2275
5.35	5.3393
5.31708	5.436
5.28456	5.4819
5.25243	5.53
5.2207	5.5725
5.18934	5.6274
5.15836	5.6992
5.12775	5.7871
5.09749	5.9057
5.0676	6.0244
5.03805	6.1506
5.00884	6.2839
4.97998	6.4009
4.95144	6.5234
4.92322	6.6089
4.89533	6.6687
4.86775	6.727
4.84048	6.7849
4.81351	6.8435
4.78684	6.9048
4.76047	6.9646
4.73439	7.0146
4.70859	7.0696
4.68306	7.1145
4.65782	7.1587
4.63284	7.2195
4.60814	7.2668
4.58369	7.342
4.5595	7.4089
4.53557	7.4846
4.51188	7.5644
4.48845	7.6511
4.46525	7.7373
4.44229	7.8388
4.41957	7.9404
4.39708	8.0371
4.37481	8.1528
4.35277	8.2776
4.33096	8.404
4.30935	8.5283
4.28797	8.644
4.26679	8.7129
4.24583	8.9243
4.22506	9.0947
4.2045	9.2605
4.18414	9.4006
4.16398	9.5439
4.14401	9.7004
4.12423	9.8562
4.10464	10.001
4.08523	10.1369
4.066	10.2583
4.04696	10.3882
4.02809	10.5036
4.0094	10.6003
3.99088	10.6748
3.97253	10.7363
3.95435	10.7846
3.93634	10.8408
3.91848	10.8662
3.90079	10.8777
3.88326	10.8857
3.86589	10.8757
3.84867	10.8637
3.8316	10.8388
3.81468	10.8051
3.79791	10.759
3.78129	10.7004
3.76482	10.6435
3.74848	10.5759
3.73229	10.5019
3.71624	10.4067
3.70032	10.311
3.68454	10.2112
3.6689	10.1059
3.65338	9.9895
3.638	9.8657
3.62275	9.7395
3.60762	9.5962
3.59262	9.4502
3.57775	9.2837
3.56299	9.1094
3.54836	8.9433
3.53385	8.7473
3.51945	8.5298
3.50517	8.2927
3.49101	8.1167
3.47696	7.937
3.46303	7.7529
3.4492	7.5327
3.43549	7.3005
3.42188	7.0317
3.40838	6.8015
3.39499	6.6062
3.38171	6.3738
3.36852	6.1592
3.35544	5.9692
3.34246	5.7466
3.32958	5.5159
3.3168	5.2878
3.30411	5.0476
3.29153	4.823
3.27903	4.6045
3.26664	4.383
3.25433	4.1733
3.24212	3.9673
3.23	3.7663
3.21797	3.562
3.20603	3.3811
3.19418	3.1958
3.18241	3.0185
3.17074	2.852
3.15914	2.6919
3.14763	2.5413
3.13621	2.3979
3.12487	2.2722
3.11361	2.1609
3.10243	2.0591
3.09133	1.9756
3.0803	1.9128
3.06936	1.8765
3.0585	1.8381
3.04771	1.8166
3.037	1.7913
3.02636	1.75
3.0158	1.7148
3.00531	1.6692
2.99489	1.6121
2.98454	1.5632
2.97427	1.5083
2.96407	1.4648
2.95393	1.4248
2.94387	1.3982
2.93387	1.3667
2.92394	1.3328
2.91408	1.3259
2.90429	1.3125
2.89456	1.3118
2.88489	1.3074
2.87529	1.2913
2.86576	1.2888
2.85628	1.3052
2.84687	1.3049
2.83752	1.2966
2.82823	1.2871
2.81901	1.2781
2.80984	1.2788
2.80073	1.2659
2.79168	1.2483
2.78269	1.2415
2.77376	1.2292
2.76488	1.219
2.75606	1.2698
2.7473	1.3865
2.73859	1.6003
2.72994	1.9983
2.72134	2.6355
2.7128	3.5547
2.70431	4.5217
2.69587	5.4399
2.68748	6.2117
2.67915	6.7893
2.67087	7.2512
2.66264	7.8108
2.65446	8.146
2.64633	8.4233
2.63825	8.6628
2.63021	8.7822
2.62223	8.9575
2.6143	9.0715
2.60641	9.1242
2.59857	9.2202
2.59078	9.2673
2.58304	9.2849
2.57534	9.3359
2.56768	9.3481
2.56008	9.3689
2.55251	9.4011
2.54499	9.4526
2.53752	9.5154
2.53009	9.5674
2.5227	9.6506
2.51536	9.7395
2.50806	9.8401
2.5008	9.9477
2.49358	10.0427
2.4864	10.1694
2.47927	10.2741
2.47218	10.3899
2.46512	10.5136
2.45811	10.6538
2.45114	10.7998
2.4442	10.9106
2.43731	11.07
2.43045	11.2212
2.42363	11.3633
2.41685	11.5132
2.41011	11.6718
2.40341	11.8139
2.39674	11.9255
2.39011	12.0512
2.38352	12.185
2.37696	12.2934
2.37044	12.435
2.36395	12.5385
2.35751	12.6633
2.35109	12.7636
2.34471	12.8789
2.33836	12.9499
2.33205	13.0258
2.32578	13.1201
2.31953	13.1633
2.31332	13.2202
2.30714	13.2441
2.301	13.2885
2.29489	13.3672
2.28881	13.4619
2.28276	13.5424
2.27675	13.5434
2.27076	13.6186
2.26481	13.6567
2.25889	13.6631
2.253	13.6528
2.24714	13.6523
2.24131	13.685
2.23551	13.747
2.22974	13.7588
2.224	13.789
2.21829	13.812
2.21261	13.8486
2.20696	13.8628
2.20134	13.8984
2.19574	13.9218
2.19018	13.9506
2.18464	13.9819
2.17913	13.9548
2.17365	14.0239
2.16819	14.0395
2.16277	14.0805
2.15737	14.0705
2.15199	14.0527
2.14665	13.9997
2.14133	14.0239
2.13603	14.0442
2.13077	14.0361
2.12552	14.0258
2.12031	13.9756
2.11512	13.9724
2.10995	13.9795
2.10481	13.9724
2.0997	13.9863
2.09461	13.9572
2.08954	13.9565
2.0845	13.9438
2.07948	13.9267
