Name: ALH 83108
Type: Stony Meteorites
Class: Carbonaceous chondrite
Subclass: CO
Particle Size: 0-75 micrometers
Sample No.: ALH 83108
Owner: JHU
Origin: Meteorite found in Antarctica in 1983..  Sample supplied by Tom Jones.
Description: None.
Measurement: Bidirectional reflectance
X Units: Wavelength (micrometers)
Y Units: Reflectance (percent)
wavelength	value
25.044	0.4329
24.339	0.3867
23.672	0.489
23.041	0.2725
22.442	0.4019
21.874	0.4426
21.334	0.418
20.82	0.4905
20.33	0.4697
19.863	0.4211
19.416	0.4568
18.99	0.4722
18.581	0.4487
18.19	0.3987
17.815	0.3503
17.455	0.3596
17.109	0.3315
16.777	0.3137
16.458	0.3108
16.15	0.3213
15.854	0.335
15.568	0.3315
15.292	0.3584
15.027	0.3801
14.77	0.415
14.521	0.477
14.281	0.5479
14.049	0.6106
13.824	0.6475
13.607	0.7217
13.396	0.8481
13.191	0.9656
12.993	1.0564
12.8	1.1001
12.614	1.0957
12.432	1.0364
12.256	0.9048
12.084	0.6702
11.918	0.5164
11.755	0.5547
11.598	0.5688
11.444	0.5627
11.294	0.5691
11.149	0.5469
11.007	0.5383
10.868	0.5664
10.733	0.5811
10.602	0.5395
10.473	0.5124
10.348	0.4912
10.225	0.4529
10.106	0.3989
9.9887	0.3914
9.8746	0.4163
9.763	0.4216
9.6539	0.4622
9.5472	0.521
9.4429	0.5549
9.3408	0.54
9.2409	0.509
9.1431	0.5098
9.0474	0.553
8.9536	0.5886
8.8618	0.624
8.7718	0.6721
8.6837	0.7344
8.5973	0.812
8.5126	0.8909
8.4295	0.9954
8.3481	1.1189
8.2682	1.2441
8.1898	1.354
8.1129	1.4612
8.0374	1.5566
7.9634	1.6289
7.8906	1.6956
7.8192	1.7507
7.7491	1.7822
7.6802	1.7927
7.6126	1.7959
7.5461	1.8171
7.4807	1.844
7.4165	1.884
7.3534	1.9282
7.2914	1.9663
7.2303	1.9966
7.1703	2.0129
7.1113	2.0459
7.0533	2.0908
6.9962	2.1409
6.94	2.1875
6.8847	2.22
6.8302	2.2515
6.7767	2.2815
6.7239	2.2993
6.672	2.2947
6.6209	2.2998
6.5705	2.3118
6.5209	2.3162
6.4721	2.3171
6.424	2.3179
6.3766	2.314
6.3299	2.3061
6.2838	2.3025
6.2385	2.2927
6.1937	2.2581
6.1496	2.2173
6.1062	2.1731
6.0633	2.1003
6.0211	2.0986
5.9794	2.1584
5.9383	2.2146
5.8978	2.26
5.8578	2.3086
5.8184	2.3447
5.7794	2.3516
5.741	2.3144
5.7031	2.2576
5.6657	2.2349
5.6288	2.2722
5.5924	2.3313
5.5564	2.3677
5.5209	2.3823
5.4859	2.3887
5.4513	2.4121
5.4171	2.4385
5.3833	2.4707
5.35	2.4851
5.3171	2.4976
5.2846	2.5024
5.2524	2.5181
5.2207	2.5361
5.1893	2.5478
5.1584	2.5561
5.1277	2.561
5.0975	2.5737
5.0676	2.5854
5.038	2.5974
5.0088	2.616
4.98	2.6445
4.9514	2.6711
4.9232	2.6965
4.8953	2.719
4.8678	2.7363
4.8405	2.7449
4.8135	2.761
4.7868	2.7778
4.7605	2.7881
4.7344	2.8008
4.7086	2.813
4.6831	2.8264
4.6578	2.8345
4.6328	2.8462
4.6081	2.854
4.5837	2.8647
4.5595	2.8762
4.5356	2.883
4.5119	2.886
4.4884	2.8926
4.4652	2.8997
4.4423	2.9082
4.4196	2.9094
4.3971	2.9153
4.3748	2.9231
4.3528	2.928
4.331	2.9326
4.3094	2.9311
4.288	2.9353
4.2668	2.9448
4.2458	2.9441
4.2251	2.9441
4.2045	2.9451
4.1841	2.947
4.164	2.9463
4.144	2.9507
4.1242	2.9485
4.1046	2.948
4.0852	2.9526
4.066	2.9521
4.047	2.956
4.0281	2.9585
4.0094	2.9526
3.9909	2.9492
3.9725	2.9546
3.9544	2.9497
3.9363	2.9482
3.9185	2.9546
3.9008	2.949
3.8833	2.9473
3.8659	2.9436
3.8487	2.9446
3.8316	2.9368
3.8147	2.9341
3.7979	2.9333
3.7813	2.9263
3.7648	2.9238
3.7485	2.9211
3.7323	2.9099
3.7162	2.9043
3.7003	2.9023
3.6845	2.8957
3.6689	2.8865
3.6534	2.8787
3.638	2.8704
3.6227	2.8647
3.6076	2.8577
3.5926	2.8472
3.5777	2.8328
3.563	2.8279
3.5484	2.8169
3.5338	2.8061
3.5195	2.7969
3.5052	2.7771
3.491	2.7661
3.477	2.7602
3.463	2.7495
3.4492	2.7336
3.4355	2.7143
3.4219	2.6963
3.4084	2.6811
3.395	2.6746
3.3817	2.6582
3.3685	2.6504
3.3554	2.6421
3.3425	2.6362
3.3296	2.6162
3.3168	2.6028
3.3041	2.5867
3.2915	2.5657
3.279	2.5522
3.2666	2.5325
3.2543	2.5166
3.2421	2.4988
3.23	2.4795
3.218	2.4629
3.206	2.4426
3.1942	2.4224
3.1824	2.405
3.1707	2.3806
3.1591	2.3657
3.1476	2.352
3.1362	2.3296
3.1249	2.3059
3.1136	2.2932
3.1024	2.2732
3.0913	2.2634
3.0803	2.2488
3.0694	2.2329
3.0585	2.22
3.0477	2.2056
3.037	2.1973
3.0264	2.1792
3.0158	2.1702
3.0053	2.1555
2.9949	2.1394
2.9845	2.1257
2.9743	2.1167
2.9641	2.1038
2.9539	2.1001
2.9439	2.0815
2.9339	2.0791
2.9239	2.0798
2.9141	2.0754
2.9043	2.0767
2.8946	2.0784
2.8849	2.0796
2.8753	2.0886
2.8658	2.0923
2.8563	2.1033
2.8469	2.1084
2.8375	2.1282
2.8282	2.135
2.819	2.1567
2.8098	2.1763
2.8007	2.2112
2.7917	2.2556
2.7827	2.2925
2.7738	2.3423
2.7649	2.3838
2.7561	2.4416
2.7473	2.4971
2.7386	2.5344
2.7299	2.5832
2.7213	2.604
2.7128	2.6191
2.7043	2.6501
2.6959	2.6667
2.6875	2.6692
2.6791	2.676
2.6709	2.6709
2.6626	2.6794
2.6545	2.687
2.6463	2.687
2.6382	2.686
2.6302	2.6748
2.6222	2.6804
2.6143	2.6782
2.6064	2.6736
2.5986	2.6753
2.5908	2.6606
2.583	2.6623
2.5753	2.6631
2.5677	2.6545
2.5601	2.6643
2.5525	2.6648
2.545	2.658
2.5375	2.6665
2.5301	2.6499
2.5227	2.655
2.5154	2.6553
2.5081	2.658
2.5008	2.6435
2.4936	2.6374
2.4864	2.6394
2.4793	2.6326
2.4722	2.6221
2.4651	2.6267
2.4581	2.6228
2.4511	2.6091
2.4442	2.6125
2.4373	2.6055
2.4305	2.6025
2.4236	2.6038
2.4169	2.6042
2.4101	2.594
2.4034	2.5918
2.3967	2.594
2.3901	2.5874
2.3835	2.5762
2.377	2.5796
2.3704	2.5718
2.364	2.5654
2.3575	2.5706
2.3511	2.5539
2.3447	2.5378
2.3384	2.5525
2.3321	2.5508
2.3258	2.5388
2.3195	2.5276
2.3133	2.5312
2.3071	2.5391
2.301	2.5359
2.2949	2.5325
2.2888	2.5117
2.2828	2.5166
2.2767	2.5156
2.2708	2.5156
2.2648	2.5139
2.2589	2.5061
2.253	2.4983
2.2471	2.5029
2.2413	2.4971
2.2355	2.4968
2.2297	2.5019
2.224	2.4976
2.2183	2.4827
2.2126	2.4912
2.207	2.4944
2.2013	2.4751
2.1957	2.4778
2.1902	2.4751
2.1846	2.4763
2.1791	2.4619
2.1736	2.4639
2.1682	2.4639
2.1628	2.4634
2.1574	2.4758
2.152	2.478
2.1466	2.4641
2.1413	2.4748
2.136	2.4726
2.1308	2.4719
2.1255	2.4661
2.1203	2.4463
2.1151	2.4568
2.11	2.4705
2.1048	2.4665
2.0997	2.4636
2.0946	2.4546
2.0895	2.4553
2.0845	2.4597
2.0795	2.4412
