Name: Anhydrite CaSO4
Type: Mineral
Class: Sulfates
Particle Size: Fine (less than 75 Micrometers)
Sample No.: anhydrite.1
Owner: JHU
Wavelength Range: IR
Origin: Sample from Champo, Isere, France, via the Smithsonian
Description: The sample was a 3 cm x 3 cm x 4 cm, white, granular
Measurement: Bidirectional reflectance
X Units: Wavelength (micrometers)
Y Units: Reflectance (percent)
wavelength	value
25.0442	1.626
24.3388	2.2935
23.6719	2.7432
23.0407	3.3765
22.4422	3.8955
21.8741	4.5273
21.334	4.9993
20.8199	5.5791
20.33	6.063
19.8627	5.8223
19.4163	4.5781
18.9896	7.414
18.5812	7.9546
18.19	8.2695
17.815	8.0437
17.4551	7.3281
17.1094	5.1431
16.7772	3.4392
16.4576	3.0471
16.15	3.249
15.8537	4.2798
15.568	4.7104
15.2925	4.7317
15.0265	3.0828
14.7697	3.4131
14.5214	4.3882
14.2814	5.8
14.0492	4.4363
13.8244	5.4614
13.6067	6.1169
13.3957	6.2478
13.1912	7.1059
12.9929	7.5857
12.8004	8.4841
12.6135	9.2026
12.432	9.2297
12.2557	9.0276
12.0843	8.5769
11.9176	8.134
11.7555	8.0742
11.5977	8.4455
11.444	7.9997
11.2944	7.2651
11.1487	7.0613
11.0067	7.1987
10.8682	7.4106
10.7332	7.6186
10.6015	7.2124
10.473	6.7722
10.3476	6.418
10.2251	6.0554
10.1056	5.8579
9.98873	5.1299
9.87458	3.6909
9.763	4.7358
9.65392	4.5593
9.54724	4.3701
9.44291	4.1843
9.34082	3.7241
9.24091	3.0928
9.14312	2.8159
9.04739	3.0515
8.95363	3.2554
8.8618	3.563
8.77183	3.8425
8.68368	4.467
8.59727	4.4599
8.51257	4.6223
8.42951	4.8657
8.34807	5.3686
8.26819	6.2226
8.18981	6.2322
8.11292	6.5644
8.03745	5.7627
7.96337	4.5574
7.89064	2.8491
7.81924	1.2339
7.74911	0.5803
7.68023	0.7441
7.61256	1.3806
7.54608	2.0154
7.48074	2.6167
7.41653	3.3047
7.35341	4.1843
7.29136	4.9255
7.23034	5.7878
7.17033	6.4297
7.11132	7.1186
7.05327	7.6677
6.99616	8.4245
6.93996	9.3127
6.88467	10.0827
6.83024	10.9936
6.77667	11.5935
6.72393	12.0881
6.67201	12.6418
6.62089	12.9892
6.57054	12.3003
6.52095	11.0302
6.4721	10.1863
6.42398	11.0842
6.37657	11.8904
6.32986	11.802
6.28382	11.9966
6.23845	10.4243
6.19373	7.2817
6.14965	5.9548
6.10619	8.6404
6.06334	10.7519
6.02109	11.3811
5.97942	11.425
5.93832	10.2158
5.89778	11.2224
5.8578	13.5017
5.81835	14.2973
5.77943	13.7517
5.74103	14.5593
5.70314	14.8613
5.66574	15.698
5.62883	16.0405
5.5924	15.8039
5.55644	15.6706
5.52093	15.8381
5.48588	16.1765
5.45127	16.4826
5.41709	17.0053
5.38334	17.4687
5.35	17.7102
5.31708	17.8713
5.28456	17.9428
5.25243	18.0222
5.2207	18.1706
5.18934	18.3034
5.15836	18.3544
5.12775	18.309
5.09749	18.1362
5.0676	18.0043
5.03805	17.9543
5.00884	17.8064
4.97998	17.6472
4.95144	17.3591
4.92322	15.8845
4.89533	17.1826
4.86775	17.0698
4.84048	16.7395
4.81351	16.2216
4.78684	15.2544
4.76047	13.5818
4.73439	10.5886
4.70859	5.3862
4.68306	3.9446
4.65782	4.3628
4.63284	6.206
4.60814	6.8508
4.58369	8.0801
4.5595	8.343
4.53557	7.7375
4.51188	7.2436
4.48845	6.5603
4.46525	6.0935
4.44229	6.6257
4.41957	8.0254
4.39708	8.9145
4.37481	8.5303
4.35277	8.3452
4.33096	9.0285
4.30935	9.573
4.28797	9.5747
4.26679	10.1306
4.24583	11.9331
4.22506	12.9184
4.2045	12.7334
4.18414	13.4497
4.16398	15.5974
4.14401	16.8689
4.12423	17.4043
4.10464	17.7785
4.08523	18.1154
4.066	18.3977
4.04696	18.6406
4.02809	18.811
4.0094	18.9511
3.99088	19.0241
3.97253	18.9755
3.95435	19.0668
3.93634	19.1499
3.91848	19.2236
3.90079	19.4306
3.88326	19.6052
3.86589	19.7495
3.84867	19.9067
3.8316	19.9562
3.81468	19.8837
3.79791	19.613
3.78129	19.7829
3.76482	20.0583
3.74848	20.2133
3.73229	20.3051
3.71624	20.3561
3.70032	20.288
3.68454	20.249
3.6689	20.2609
3.65338	20.2075
3.638	20.1628
3.62275	20.1467
3.60762	20.1442
3.59262	20.112
3.57775	20.0766
3.56299	19.9929
3.54836	19.8798
3.53385	19.7849
3.51945	19.6152
3.50517	19.1948
3.49101	19.1362
3.47696	19.0478
3.46303	18.9682
3.4492	18.8542
3.43549	18.7207
3.42188	18.3623
3.40838	18.2924
3.39499	18.4611
3.38171	18.4382
3.36852	18.3874
3.35544	18.4169
3.34246	18.3986
3.32958	18.2836
3.3168	18.0937
3.30411	17.9096
3.29153	17.7011
3.27903	17.477
3.26664	17.2793
3.25433	17.0839
3.24212	16.8359
3.23	16.5776
3.21797	16.2514
3.20603	15.9189
3.19418	15.4453
3.18241	14.9138
3.17074	14.6186
3.15914	14.2324
3.14763	13.7849
3.13621	13.3388
3.12487	12.9978
3.11361	12.6765
3.10243	12.2649
3.09133	11.6494
3.0803	11.2068
3.06936	11.3642
3.0585	11.2549
3.04771	11.0537
3.037	10.8215
3.02636	10.5522
3.0158	10.2605
3.00531	9.9968
2.99489	9.7617
2.98454	9.5395
2.97427	9.227
2.96407	8.7397
2.95393	8.1108
2.94387	7.5371
2.93387	7.4155
2.92394	7.7969
2.91408	8.3354
2.90429	8.7524
2.89456	8.9834
2.88489	9.0288
2.87529	8.8769
2.86576	8.6069
2.85628	8.6723
2.84687	8.7278
2.83752	8.5674
2.82823	8.2602
2.81901	8.1045
2.80984	8.3193
2.80073	8.9155
2.79168	9.6885
2.78269	10.4597
2.77376	11.1914
2.76488	11.9673
2.75606	13.0102
2.7473	14.1489
2.73859	15.1628
2.72994	16.0158
2.72134	16.7314
2.7128	17.4565
2.70431	18.0925
2.69587	18.5664
2.68748	18.9301
2.67915	19.2258
2.67087	19.4272
2.66264	19.6752
2.65446	19.8559
2.64633	19.9936
2.63825	20.08
2.63021	20.1203
2.62223	20.1955
2.6143	20.2277
2.60641	20.2299
2.59857	20.2744
2.59078	20.3088
2.58304	20.3027
2.57534	20.3518
2.56768	20.3759
2.56008	20.4055
2.55251	20.3964
2.54499	20.4602
2.53752	20.4594
2.53009	20.4565
2.5227	20.4472
2.51536	20.415
2.50806	20.3693
2.5008	20.3654
2.49358	20.3215
2.4864	20.2951
2.47927	20.3039
2.47218	20.3027
2.46512	20.3332
2.45811	20.3996
2.45114	20.4628
2.4442	20.4658
2.43731	20.4396
2.43045	20.4775
2.42363	20.4824
2.41685	20.602
2.41011	20.7167
2.40341	20.8154
2.39674	20.8977
2.39011	21.0146
2.38352	21.1401
2.37696	21.2104
2.37044	21.2871
2.36395	21.3217
2.35751	21.3056
2.35109	21.3456
2.34471	21.3793
2.33836	21.3383
2.33205	21.3154
2.32578	21.3339
2.31953	21.3164
2.31332	21.3251
2.30714	21.3032
2.301	21.2724
2.29489	21.2607
2.28881	21.206
2.28276	21.1669
2.27675	21.0781
2.27076	21.0961
2.26481	21.1079
2.25889	21.0527
2.253	21.0493
2.24714	21.0331
2.24131	20.9931
2.23551	21.018
2.22974	20.9921
2.224	20.8188
2.21829	20.8129
2.21261	20.8935
2.20696	20.7988
2.20134	20.832
2.19574	20.8305
2.19018	20.8095
2.18464	20.8076
2.17913	20.7226
2.17365	20.7929
2.16819	20.8222
2.16277	20.873
2.15737	20.9189
2.15199	20.8232
2.14665	20.8325
2.14133	20.8046
2.13603	20.8657
2.13077	20.8266
2.12552	20.8832
2.12031	20.9081
2.11512	20.9165
2.10995	20.9101
2.10481	20.8974
2.0997	20.9145
2.09461	20.9794
2.08954	21.0512
2.0845	21.0751
2.07948	21.0761
