Name: TIL 82402
Type: Stony Meteorites
Class: Ordinary Chondrite
Subclass: LL6
Particle Size: 0-75 micrometers
Sample No.: TIL 82402
Owner: JHU
Origin: Meteorite found in Antarctica in 1982.  Smithsonian sample No. TIL
Description: None.
Measurement: Bidirectional reflectance
X Units: Wavelength (micrometers)
Y Units: Reflectance (percent)
wavelength	value
25.044	1.064
24.339	1.0178
23.672	0.6892
23.041	0.5923
22.442	0.5161
21.874	0.5786
21.334	0.6082
20.82	0.6702
20.33	0.7881
19.863	0.7866
19.416	0.8069
18.99	0.7815
18.581	0.7646
18.19	0.7148
17.815	0.709
17.455	0.6987
17.109	0.6648
16.777	0.6499
16.458	0.6626
16.15	0.686
15.854	0.6431
15.568	0.5776
15.292	0.6274
15.027	0.804
14.77	0.8835
14.521	1.0386
14.281	1.2112
14.049	1.2993
13.824	1.2231
13.607	1.3113
13.396	1.4739
13.191	1.6213
12.993	1.6475
12.8	1.5798
12.614	1.512
12.432	1.3943
12.256	1.2427
12.084	0.9644
11.918	0.7825
11.755	0.8293
11.598	0.8918
11.444	1.0415
11.294	1.1257
11.149	1.0745
11.007	1.0552
10.868	1.073
10.733	1.1265
10.602	1.0625
10.473	0.9065
10.348	0.8621
10.225	0.9019
10.106	0.8389
9.9887	0.8101
9.8746	0.8101
9.763	0.8491
9.6539	0.9045
9.5472	0.9673
9.4429	0.9656
9.3408	0.8845
9.2409	0.8135
9.1431	0.8181
9.0474	0.8208
8.9536	0.8057
8.8618	0.8362
8.7718	0.8459
8.6837	0.8826
8.5973	0.9282
8.5126	1.0435
8.4295	1.2312
8.3481	1.4878
8.2682	1.8137
8.1898	2.1279
8.1129	2.3943
8.0374	2.6338
7.9634	2.8259
7.8906	2.9861
7.8192	3.1262
7.7491	3.26
7.6802	3.3364
7.6126	3.4023
7.5461	3.5015
7.4807	3.6247
7.4165	3.7407
7.3534	3.8599
7.2914	3.9519
7.2303	4.0332
7.1703	4.1045
7.1113	4.1599
7.0533	4.2466
6.9962	4.3374
6.94	4.4011
6.8847	4.4487
6.8302	4.5056
6.7767	4.5615
6.7239	4.6011
6.672	4.5984
6.6209	4.5806
6.5705	4.5847
6.5209	4.625
6.4721	4.637
6.424	4.6374
6.3766	4.6203
6.3299	4.5713
6.2838	4.5432
6.2385	4.5188
6.1937	4.4834
6.1496	4.4499
6.1062	4.3662
6.0633	4.1819
6.0211	4.0681
5.9794	4.1423
5.9383	4.2502
5.8978	4.3386
5.8578	4.4153
5.8184	4.469
5.7794	4.4853
5.741	4.4018
5.7031	4.2556
5.6657	4.1536
5.6288	4.2266
5.5924	4.4031
5.5564	4.5334
5.5209	4.5854
5.4859	4.6081
5.4513	4.6633
5.4171	4.7473
5.3833	4.8342
5.35	4.8909
5.3171	4.9026
5.2846	4.895
5.2524	4.8953
5.2207	4.9182
5.1893	4.9419
5.1584	4.9748
5.1277	5.0371
5.0975	5.0874
5.0676	5.1313
5.038	5.164
5.0088	5.1902
4.98	5.2322
4.9514	5.3174
4.9232	5.4287
4.8953	5.5168
4.8678	5.5835
4.8405	5.6311
4.8135	5.6963
4.7868	5.7536
4.7605	5.8042
4.7344	5.8381
4.7086	5.886
4.6831	5.9263
4.6578	5.977
4.6328	6.0266
4.6081	6.0708
4.5837	6.0979
4.5595	6.1221
4.5356	6.1474
4.5119	6.1704
4.4884	6.1797
4.4652	6.196
4.4423	6.2192
4.4196	6.2295
4.3971	6.2546
4.3748	6.2673
4.3528	6.28
4.331	6.2893
4.3094	6.2983
4.288	6.3127
4.2668	6.3279
4.2458	6.3489
4.2251	6.366
4.2045	6.3838
4.1841	6.3979
4.164	6.4099
4.144	6.4136
4.1242	6.4241
4.1046	6.4382
4.0852	6.4465
4.066	6.4565
4.047	6.4648
4.0281	6.478
4.0094	6.4817
3.9909	6.4822
3.9725	6.489
3.9544	6.4944
3.9363	6.4907
3.9185	6.4858
3.9008	6.4985
3.8833	6.4958
3.8659	6.4953
3.8487	6.4951
3.8316	6.4853
3.8147	6.4917
3.7979	6.488
3.7813	6.491
3.7648	6.4912
3.7485	6.4902
3.7323	6.4883
3.7162	6.4795
3.7003	6.4651
3.6845	6.4646
3.6689	6.4582
3.6534	6.4494
3.638	6.4519
3.6227	6.4448
3.6076	6.4333
3.5926	6.4282
3.5777	6.4206
3.563	6.4016
3.5484	6.3833
3.5338	6.3696
3.5195	6.3479
3.5052	6.3235
3.491	6.31
3.477	6.3015
3.463	6.2971
3.4492	6.2651
3.4355	6.241
3.4219	6.2048
3.4084	6.1824
3.395	6.1889
3.3817	6.1775
3.3685	6.1709
3.3554	6.1577
3.3425	6.1448
3.3296	6.1269
3.3168	6.1142
3.3041	6.093
3.2915	6.0727
3.279	6.0576
3.2666	6.0285
3.2543	6.0185
3.2421	6.0027
3.23	5.9739
3.218	5.9485
3.206	5.9277
3.1942	5.9092
3.1824	5.8945
3.1707	5.8662
3.1591	5.8418
3.1476	5.81
3.1362	5.7854
3.1249	5.7541
3.1136	5.7344
3.1024	5.708
3.0913	5.6848
3.0803	5.6653
3.0694	5.6472
3.0585	5.6321
3.0477	5.6167
3.037	5.5991
3.0264	5.5864
3.0158	5.5715
3.0053	5.5483
2.9949	5.5295
2.9845	5.5102
2.9743	5.4958
2.9641	5.4831
2.9539	5.4531
2.9439	5.4333
2.9339	5.4248
2.9239	5.4433
2.9141	5.4617
2.9043	5.4851
2.8946	5.5054
2.8849	5.5058
2.8753	5.5185
2.8658	5.5273
2.8563	5.5569
2.8469	5.5705
2.8375	5.5945
2.8282	5.6018
2.819	5.6184
2.8098	5.6496
2.8007	5.7104
2.7917	5.7705
2.7827	5.8381
2.7738	5.9265
2.7649	5.9848
2.7561	6.0705
2.7473	6.1597
2.7386	6.2324
2.7299	6.3379
2.7213	6.4199
2.7128	6.5027
2.7043	6.5784
2.6959	6.6382
2.6875	6.6726
2.6791	6.6899
2.6709	6.7053
2.6626	6.7261
2.6545	6.7397
2.6463	6.7373
2.6382	6.737
2.6302	6.7422
2.6222	6.7375
2.6143	6.7414
2.6064	6.7317
2.5986	6.7326
2.5908	6.7229
2.583	6.7175
2.5753	6.7143
2.5677	6.72
2.5601	6.7182
2.5525	6.718
2.545	6.7065
2.5375	6.7229
2.5301	6.7085
2.5227	6.7041
2.5154	6.6948
2.5081	6.6792
2.5008	6.6716
2.4936	6.6599
2.4864	6.6584
2.4793	6.6394
2.4722	6.6401
2.4651	6.6308
2.4581	6.602
2.4511	6.6052
2.4442	6.5671
2.4373	6.5676
2.4305	6.5649
2.4236	6.5571
2.4169	6.5549
2.4101	6.5271
2.4034	6.5437
2.3967	6.5195
2.3901	6.511
2.3835	6.52
2.377	6.499
2.3704	6.4917
2.364	6.4743
2.3575	6.4631
2.3511	6.4455
2.3447	6.4468
2.3384	6.4143
2.3321	6.3872
2.3258	6.3972
2.3195	6.3857
2.3133	6.3594
2.3071	6.3669
2.301	6.3642
2.2949	6.3547
2.2888	6.3332
2.2828	6.3152
2.2767	6.311
2.2708	6.3254
2.2648	6.2864
2.2589	6.2903
2.253	6.292
2.2471	6.2761
2.2413	6.2881
2.2355	6.2673
2.2297	6.2231
2.224	6.258
2.2183	6.2356
2.2126	6.2158
2.207	6.2234
2.2013	6.198
2.1957	6.1887
2.1902	6.1806
2.1846	6.1799
2.1791	6.1682
2.1736	6.1365
2.1682	6.1504
2.1628	6.1167
2.1574	6.1387
2.152	6.0918
2.1466	6.0925
2.1413	6.0808
2.136	6.0932
2.1308	6.0718
2.1255	6.0823
2.1203	6.0862
2.1151	6.0373
2.11	6.0713
2.1048	6.0603
2.0997	6.0522
2.0946	6.0569
2.0895	6.0705
2.0845	6.0412
2.0795	6.0608
