Name: Vesuvianite Ca10Mg2Al4(SiO4)5(Si2O7)2(OH)4
Type: Mineral
Class: Silicates
Subclass: Sorosilicates
Particle Size: Solid (cleavage face)
Sample No.: vesuvian.1
Owner: JHU
Wavelength Range: IR
Origin: Quebec, Canada via Norma Vergo
Description: The sample was a massive piece of striated, green,
Measurement: Bidirectional reflectance
X Units: Wavelength (micrometers)
Y Units: Reflectance (percent)
wavelength	value
25.0442	15.0332
24.3388	17.8173
23.6719	17.7509
23.0407	21.7695
22.4422	22.3378
21.8741	19.5043
21.334	21.5117
20.8199	23.3222
20.33	26.9169
19.8627	25.0497
19.4163	18.4345
18.9896	14.8115
18.5812	13.1154
18.19	11.4907
17.815	9.9858
17.4551	10.7417
17.1094	9.7839
16.7772	9.3484
16.4576	11.0014
16.15	9.2783
15.8537	8.7431
15.568	8.8039
15.2925	8.4365
15.0265	5.5749
14.7697	4.4932
14.5214	4.8164
14.2814	5.3328
14.0492	5.7546
13.8244	6.0525
13.6067	6.5063
13.3957	6.9534
13.1912	7.4866
12.9929	8.1777
12.8004	9.1203
12.6135	9.9892
12.432	10.0986
12.2557	10.042
12.0843	10.4023
11.9176	11.1743
11.7555	12.2529
11.5977	12.9482
11.444	13.6518
11.2944	15.2712
11.1487	15.5122
11.0067	14.8408
10.8682	16.6677
10.7332	15.2981
10.6015	14.1882
10.473	14.4304
10.3476	15.759
10.2251	16.4641
10.1056	14.6125
9.98873	11.5195
9.87458	17.3193
9.763	27.0051
9.65392	31.9049
9.54724	31.0778
9.44291	26.3027
9.34082	17.4956
9.24091	9.5559
9.14312	4.1465
9.04739	1.0259
8.95363	0.5842
8.8618	0.957
8.77183	1.3459
8.68368	1.6802
8.59727	1.978
8.51257	2.2329
8.42951	2.4524
8.34807	2.6372
8.26819	2.8088
8.18981	2.9607
8.11292	3.0955
8.03745	3.22
7.96337	3.3249
7.89064	3.4255
7.81924	3.519
7.74911	3.6155
7.68023	3.706
7.61256	3.7847
7.54608	3.866
7.48074	3.938
7.41653	4.0107
7.35341	4.0713
7.29136	4.1323
7.23034	4.1919
7.17033	4.2368
7.11132	4.2888
7.05327	4.3293
6.99616	4.3816
6.93996	4.426
6.88467	4.4604
6.83024	4.4934
6.77667	4.5193
6.72393	4.5461
6.67201	4.5696
6.62089	4.5962
6.57054	4.6138
6.52095	4.6523
6.4721	4.6792
6.42398	4.6977
6.37657	4.7444
6.32986	4.772
6.28382	4.7991
6.23845	4.831
6.19373	4.8489
6.14965	4.8743
6.10619	4.8926
6.06334	4.915
6.02109	4.9336
5.97942	4.9536
5.93832	4.9587
5.89778	4.9807
5.8578	5.0124
5.81835	5.0205
5.77943	5.0493
5.74103	5.0635
5.70314	5.0676
5.66574	5.0801
5.62883	5.0859
5.5924	5.0969
5.55644	5.0969
5.52093	5.1074
5.48588	5.1213
5.45127	5.1326
5.41709	5.1467
5.38334	5.1614
5.35	5.1753
5.31708	5.1951
5.28456	5.2092
5.25243	5.2263
5.2207	5.2407
5.18934	5.2449
5.15836	5.2554
5.12775	5.2705
5.09749	5.2805
5.0676	5.2878
5.03805	5.3017
5.00884	5.3108
4.97998	5.3179
4.95144	5.3213
4.92322	5.3262
4.89533	5.3308
4.86775	5.3381
4.84048	5.3518
4.81351	5.3657
4.78684	5.3774
4.76047	5.3891
4.73439	5.4036
4.70859	5.415
4.68306	5.4223
4.65782	5.4343
4.63284	5.4463
4.60814	5.4658
4.58369	5.4746
4.5595	5.479
4.53557	5.4944
4.51188	5.4978
4.48845	5.5015
4.46525	5.5054
4.44229	5.5117
4.41957	5.5124
4.39708	5.5224
4.37481	5.5266
4.35277	5.5276
4.33096	5.5305
4.30935	5.5378
4.28797	5.5386
4.26679	5.5442
4.24583	5.5493
4.22506	5.5483
4.2045	5.5669
4.18414	5.5732
4.16398	5.5784
4.14401	5.5874
4.12423	5.5925
4.10464	5.6106
4.08523	5.6142
4.066	5.6206
4.04696	5.6294
4.02809	5.6313
4.0094	5.6369
3.99088	5.644
3.97253	5.6448
3.95435	5.6352
3.93634	5.6384
3.91848	5.6433
3.90079	5.6477
3.88326	5.6482
3.86589	5.6443
3.84867	5.6409
3.8316	5.6443
3.81468	5.6443
3.79791	5.6479
3.78129	5.6484
3.76482	5.6594
3.74848	5.6716
3.73229	5.6684
3.71624	5.675
3.70032	5.6819
3.68454	5.6843
3.6689	5.6843
3.65338	5.6916
3.638	5.688
3.62275	5.6926
3.60762	5.6992
3.59262	5.6973
3.57775	5.6955
3.56299	5.6929
3.54836	5.6924
3.53385	5.6887
3.51945	5.6824
3.50517	5.6789
3.49101	5.6838
3.47696	5.6772
3.46303	5.6872
3.4492	5.6799
3.43549	5.6789
3.42188	5.6743
3.40838	5.6787
3.39499	5.6758
3.38171	5.6899
3.36852	5.6948
3.35544	5.6911
3.34246	5.6882
3.32958	5.6997
3.3168	5.7016
3.30411	5.6943
3.29153	5.6841
3.27903	5.6716
3.26664	5.6804
3.25433	5.6782
3.24212	5.6863
3.23	5.6848
3.21797	5.6736
3.20603	5.665
3.19418	5.6357
3.18241	5.6118
3.17074	5.5791
3.15914	5.571
3.14763	5.5552
3.13621	5.541
3.12487	5.5408
3.11361	5.5383
3.10243	5.53
3.09133	5.5234
3.0803	5.5068
3.06936	5.4985
3.0585	5.5032
3.04771	5.4971
3.037	5.4927
3.02636	5.4961
3.0158	5.4822
3.00531	5.4841
2.99489	5.477
2.98454	5.4739
2.97427	5.4617
2.96407	5.4619
2.95393	5.4424
2.94387	5.4272
2.93387	5.4077
2.92394	5.4057
2.91408	5.3943
2.90429	5.3694
2.89456	5.3494
2.88489	5.3552
2.87529	5.3452
2.86576	5.3213
2.85628	5.3027
2.84687	5.3003
2.83752	5.2795
2.82823	5.2749
2.81901	5.2593
2.80984	5.2617
2.80073	5.249
2.79168	5.251
2.78269	5.2663
2.77376	5.2683
2.76488	5.2541
2.75606	5.2117
2.7473	5.0898
2.73859	5.0659
2.72994	5.1162
2.72134	5.074
2.7128	5.094
2.70431	5.1135
2.69587	5.1086
2.68748	5.1203
2.67915	5.1099
2.67087	5.083
2.66264	5.1138
2.65446	5.1155
2.64633	5.0903
2.63825	5.1001
2.63021	5.0605
2.62223	5.0891
2.6143	5.0771
2.60641	5.0727
2.59857	5.083
2.59078	5.0625
2.58304	5.0586
2.57534	5.0513
2.56768	5.0578
2.56008	5.0354
2.55251	5.0452
2.54499	5.0217
2.53752	5.0481
2.53009	5.0229
2.5227	5.0132
2.51536	5.0168
2.50806	5.009
2.5008	4.9971
2.49358	4.9883
2.4864	4.9892
2.47927	4.9726
2.47218	4.9775
2.46512	4.9553
2.45811	4.9599
2.45114	4.9717
2.4442	4.9162
2.43731	4.9534
2.43045	4.9443
2.42363	4.9321
2.41685	4.9404
2.41011	4.938
2.40341	4.9224
2.39674	4.9209
2.39011	4.9243
2.38352	4.9155
2.37696	4.9438
2.37044	4.937
2.36395	4.9438
2.35751	4.9692
2.35109	4.9751
2.34471	4.9707
2.33836	4.9385
2.33205	4.9761
2.32578	4.9961
2.31953	5.0049
2.31332	5.0122
2.30714	5.0122
2.301	5.0181
2.29489	5.0474
2.28881	5.1142
2.28276	5.1113
2.27675	5.1377
2.27076	5.1802
2.26481	5.1875
2.25889	5.2016
2.253	5.2153
2.24714	5.2558
2.24131	5.2778
2.23551	5.29
2.22974	5.2959
2.224	5.3423
2.21829	5.3833
2.21261	5.4043
2.20696	5.4219
2.20134	5.4223
2.19574	5.4477
2.19018	5.4458
2.18464	5.5102
2.17913	5.5298
2.17365	5.5278
2.16819	5.5395
2.16277	5.5371
2.15737	5.543
2.15199	5.5517
2.14665	5.5976
2.14133	5.6055
2.13603	5.6289
2.13077	5.6255
2.12552	5.6802
2.12031	5.7383
2.11512	5.727
2.10995	5.7695
2.10481	5.7656
2.0997	5.7973
2.09461	5.852
2.08954	5.8638
2.0845	5.8677
2.07948	5.8935
