Name: Anorthite (Feldspar) (NaSi,CaAl)AlSi_2O_8
Type: Mineral
Class: Silicates
Subclass: Tectosilicates
Particle Size: 45-125um
Sample No.: TS-5A
Owner: JPL
Wavelength Range: VNIR-SWIR
Measurement: Hemispherical reflectance
X Units: Wavelength (micrometers)
Y Units: Reflectance (percent)
wavelength	value
0.4	50.89
0.403	51.21
0.406	51.96
0.409	52.28
0.412	52.5
0.415	52.92
0.418	53.26
0.421	53.65
0.424	54.05
0.427	54.68
0.43	55.16
0.433	55.56
0.436	56.15
0.439	56.51
0.442	56.47
0.445	56.99
0.448	57.23
0.451	57.45
0.454	57.83
0.457	58.4
0.46	58.65
0.463	59.04
0.466	59.1
0.469	59.54
0.472	59.83
0.475	60.02
0.478	60.18
0.481	60.55
0.484	60.65
0.487	60.92
0.49	61.15
0.493	61.43
0.496	61.44
0.499	61.66
0.502	61.92
0.505	62.09
0.508	62.28
0.511	62.67
0.514	62.78
0.517	62.96
0.52	63.37
0.523	63.38
0.526	63.4
0.529	63.58
0.532	63.78
0.535	63.68
0.538	63.93
0.541	64.05
0.544	64.03
0.547	64.12
0.55	64.31
0.553	64.37
0.556	64.39
0.559	64.58
0.562	64.73
0.565	64.76
0.568	64.8
0.571	64.64
0.574	64.62
0.577	64.63
0.58	64.56
0.583	64.66
0.586	64.54
0.589	64.53
0.592	64.65
0.595	64.86
0.598	64.71
0.601	64.89
0.604	65.06
0.607	65.04
0.61	64.89
0.613	64.99
0.616	65.03
0.619	64.87
0.622	65.02
0.625	65.07
0.628	65.1
0.631	65.06
0.634	65.19
0.637	65.3
0.64	65.08
0.643	65.08
0.646	65.1
0.649	65.18
0.652	65.23
0.655	65.35
0.658	65.19
0.661	65.25
0.664	65.24
0.667	65.34
0.67	65.33
0.673	65.32
0.676	65.4
0.679	65.34
0.682	65.39
0.685	65.28
0.688	65.35
0.691	65.36
0.694	65.46
0.697	65.35
0.7	65.23
0.703	65.36
0.706	65.3
0.709	65.29
0.712	65.36
0.715	65.21
0.718	65.2
0.721	65.4
0.724	65.32
0.727	65.3
0.73	65.25
0.733	65.38
0.736	65.3
0.739	65.1
0.742	65.18
0.745	65.13
0.748	65.02
0.751	64.97
0.754	64.95
0.757	64.82
0.76	64.89
0.763	64.95
0.766	64.88
0.769	64.81
0.772	64.78
0.775	64.69
0.778	64.68
0.781	64.56
0.784	64.62
0.787	64.68
0.79	64.41
0.793	64.49
0.796	64.51
0.799	64.38
0.808	64.13
0.82	63.94
0.832	63.74
0.844	63.64
0.856	63.52
0.868	63.59
0.88	63.55
0.892	63.61
0.904	63.61
0.916	63.73
0.928	63.81
0.94	63.9
0.952	63.9
0.964	63.92
0.976	63.71
0.988	63.57
1	63.41
1.012	63.25
1.024	63.01
1.036	62.71
1.048	62.51
1.06	62.35
1.072	62.28
1.084	62.13
1.096	62.13
1.108	62.12
1.12	62.05
1.132	61.93
1.144	61.89
1.156	62.1
1.168	62.12
1.18	62.22
1.192	62.15
1.204	62.39
1.216	62.51
1.228	62.79
1.24	62.94
1.252	63.13
1.264	63.37
1.276	63.61
1.288	63.74
1.3	63.99
1.312	64.31
1.324	64.57
1.336	64.79
1.348	65.05
1.36	65.27
1.372	65.46
1.384	64.5
1.396	63.28
1.408	63.84
1.42	65.33
1.432	65.87
1.444	66.21
1.456	66.53
1.468	66.72
1.48	67.2
1.492	67.72
1.504	68.05
1.516	68.39
1.528	68.55
1.54	68.57
1.552	68.58
1.564	68.65
1.576	68.76
1.588	68.83
1.6	68.96
1.612	69.07
1.624	69.05
1.636	69.07
1.648	69
1.66	69.23
1.672	69.34
1.684	69.46
1.696	69.44
1.708	69.63
1.72	69.84
1.732	69.94
1.744	70.01
1.756	70.07
1.768	70.1
1.78	70.05
1.792	70.18
1.804	70.25
1.816	70.31
1.828	70.12
1.84	69.98
1.852	69.83
1.864	69.45
1.876	68.76
1.888	67.5
1.9	66.05
1.912	65.43
1.924	65.79
1.936	66.21
1.948	66.57
1.96	66.97
1.972	67.33
1.984	67.79
1.996	68.26
2.008	68.63
2.02	69.03
2.032	69.47
2.044	69.83
2.056	69.98
2.068	70.17
2.08	70.41
2.092	70.48
2.104	70.51
2.116	70.6
2.128	70.42
2.14	70.02
2.152	69.36
2.164	68.63
2.176	67.83
2.188	67.19
2.2	66.99
2.212	66.65
2.224	65.88
2.236	64.62
2.248	63.7
2.26	63.1
2.272	62.73
2.284	62.04
2.296	61.01
2.308	59.43
2.32	57.72
2.332	56.13
2.344	55.37
2.356	55.7
2.368	57.18
2.38	58.82
2.392	59.83
2.404	60.21
2.416	60.14
2.428	59.63
2.44	59.02
2.452	58.37
2.464	57.87
2.476	57.77
2.488	58.03
2.5	58.15
