Name: Glauberite Na_2Ca(SO_4)_2
Type: Mineral
Class: Sulfates
Particle Size: 0-45um
Sample No.: SO-8A
Owner: JPL
Wavelength Range: VNIR-SWIR
Origin: USA, Arizona, Yavapai County, Campe Verde
Measurement: Hemispherical reflectance
X Units: Wavelength (micrometers)
Y Units: Reflectance (percent)
wavelength	value
0.4	71.96
0.403	72.53
0.406	72.86
0.409	73.22
0.412	73.44
0.415	73.84
0.418	74.06
0.421	74.45
0.424	74.85
0.427	75.24
0.43	75.44
0.433	75.63
0.436	76.05
0.439	76.36
0.442	76.76
0.445	77.06
0.448	77.05
0.451	77.39
0.454	77.47
0.457	77.73
0.46	77.85
0.463	78.11
0.466	78.14
0.469	78.31
0.472	78.37
0.475	78.49
0.478	78.85
0.481	79.01
0.484	79.11
0.487	79.24
0.49	79.31
0.493	79.57
0.496	79.66
0.499	79.89
0.502	80
0.505	80.3
0.508	80.38
0.511	80.64
0.514	80.72
0.517	80.97
0.52	81.17
0.523	81.25
0.526	81.44
0.529	81.72
0.532	81.77
0.535	81.97
0.538	82.06
0.541	82.15
0.544	82.26
0.547	82.5
0.55	82.78
0.553	82.88
0.556	82.94
0.559	83.07
0.562	83.46
0.565	83.44
0.568	83.53
0.571	83.33
0.574	83.26
0.577	83.35
0.58	83.33
0.583	83.28
0.586	83.49
0.589	83.38
0.592	83.45
0.595	83.67
0.598	83.63
0.601	83.7
0.604	83.84
0.607	83.83
0.61	83.88
0.613	83.85
0.616	83.81
0.619	83.67
0.622	83.83
0.625	83.74
0.628	83.8
0.631	83.94
0.634	83.88
0.637	83.89
0.64	84.14
0.643	83.92
0.646	84.06
0.649	84.13
0.652	84.04
0.655	84.05
0.658	84.06
0.661	83.97
0.664	84.23
0.667	84.27
0.67	84.18
0.673	84.19
0.676	84.29
0.679	84.15
0.682	84.37
0.685	84.48
0.688	84.35
0.691	84.28
0.694	84.42
0.697	84.3
0.7	84.56
0.703	84.44
0.706	84.4
0.709	84.58
0.712	84.67
0.715	84.71
0.718	84.55
0.721	84.53
0.724	84.75
0.727	84.79
0.73	84.82
0.733	84.84
0.736	84.84
0.739	84.91
0.742	84.89
0.745	85.01
0.748	85.03
0.751	85.11
0.754	85.01
0.757	84.96
0.76	84.89
0.763	85.08
0.766	85.15
0.769	85.15
0.772	85.08
0.775	85.22
0.778	85.14
0.781	85.27
0.784	85.45
0.787	85.37
0.79	85.39
0.793	85.49
0.796	85.36
0.799	85.59
0.808	85.92
0.82	85.86
0.832	85.91
0.844	86.03
0.856	86
0.868	86.16
0.88	86.04
0.892	86.1
0.904	86.1
0.916	86.03
0.928	86.26
0.94	86.22
0.952	86.34
0.964	86.47
0.976	86.36
0.988	86.4
1	86.51
1.012	86.52
1.024	86.6
1.036	86.57
1.048	86.7
1.06	86.65
1.072	86.77
1.084	86.7
1.096	86.96
1.108	86.85
1.12	87.02
1.132	87.09
1.144	87.02
1.156	87.02
1.168	87.17
1.18	87.06
1.192	87.18
1.204	87.21
1.216	87.32
1.228	87.32
1.24	87.38
1.252	87.41
1.264	87.51
1.276	87.54
1.288	87.63
1.3	87.71
1.312	87.62
1.324	87.65
1.336	87.57
1.348	87.67
1.36	87.8
1.372	87.72
1.384	87.61
1.396	87.47
1.408	87.44
1.42	87.38
1.432	87.66
1.444	87.59
1.456	87.71
1.468	87.74
1.48	87.96
1.492	88.01
1.504	88.04
1.516	88.26
1.528	88.21
1.54	88.24
1.552	88.24
1.564	88.38
1.576	88.39
1.588	88.38
1.6	88.39
1.612	88.51
1.624	88.49
1.636	88.46
1.648	88.52
1.66	88.62
1.672	88.65
1.684	88.63
1.696	88.67
1.708	88.72
1.72	88.66
1.732	88.71
1.744	88.54
1.756	88.61
1.768	88.57
1.78	88.56
1.792	88.72
1.804	88.58
1.816	88.56
1.828	88.54
1.84	88.6
1.852	88.42
1.864	88.3
1.876	88
1.888	87.46
1.9	86.65
1.912	86.35
1.924	86.11
1.936	86.04
1.948	86.2
1.96	86.56
1.972	86.78
1.984	87.13
1.996	87.61
2.008	87.79
2.02	88.12
2.032	88.32
2.044	88.4
2.056	88.5
2.068	88.52
2.08	88.64
2.092	88.73
2.104	88.95
2.116	89.03
2.128	88.99
2.14	89.02
2.152	88.86
2.164	88.61
2.176	88.39
2.188	88.28
2.2	88.15
2.212	88.06
2.224	88.12
2.236	88.01
2.248	88.14
2.26	88.12
2.272	88.05
2.284	87.94
2.296	87.8
2.308	87.83
2.32	87.95
2.332	88.08
2.344	87.99
2.356	87.96
2.368	87.69
2.38	87.59
2.392	87.35
2.404	87.28
2.416	87.11
2.428	86.92
2.44	86.74
2.452	86.61
2.464	86.47
2.476	86.29
2.488	86.82
2.5	87.18
