Name: Cryolite Na_3AlF_6
Type: Mineral
Class: Halides
Particle Size: 125-500um
Sample No.: H-1A
Owner: JPL
Origin: Denmark, Greenland, Ivigtut
Measurement: Hemispherical reflectance
X Units: Wavelength (micrometers)
Y Units: Reflectance (percent)
wavelength	value
15.385	40.122
15.116	38.5115
14.856	31.0641
14.605	20.471
14.362	12.2258
14.128	6.7341
13.9	3.4849
13.68	1.553
13.467	0.8374
13.26	0.3444
13.06	0.232
12.866	0.0956
12.677	0.1844
12.494	0
12.316	0.0206
12.143	0.1409
11.974	0.2153
11.811	0.1857
11.651	0.0478
11.496	0.2249
11.345	0.361
11.198	0.2379
11.055	0.2062
10.915	0.458
10.779	0.2986
10.647	0.4624
10.517	0.2866
10.39	0.2717
10.267	0.342
10.146	0.3151
10.029	0.4147
9.914	0.229
9.801	0.57
9.691	0.4577
9.584	0.5072
9.479	0.6508
9.376	0.8208
9.275	1.392
9.177	2.8696
9.08	4.709
8.986	5.2434
8.893	3.7075
8.803	2.8906
8.714	3.4923
8.627	5.0791
8.542	7.6085
8.458	8.8303
8.376	9.6061
8.296	10.1185
8.217	11.5128
8.139	15.5271
8.063	21.1763
7.989	25.7281
7.916	29.1912
7.844	31.5643
7.773	32.9324
7.704	33.8527
7.636	34.5807
7.569	34.9566
7.503	35.1638
7.439	34.7305
7.375	33.9872
7.313	33.692
7.252	34.0939
7.191	34.9484
7.132	36.3858
7.073	37.9833
7.016	40.0179
6.96	42.9335
6.904	44.1476
6.849	46.3673
6.795	48.8651
6.742	49.9012
6.69	51.8624
6.639	54.5698
6.588	52.5938
6.538	51.8239
6.489	54.8253
6.441	53.3731
6.393	53.5949
6.346	54.7357
6.3	53.6157
6.254	53.5147
6.209	53.0613
6.165	53.347
6.121	53.6978
6.078	54.1025
6.036	53.692
5.994	55.5858
5.953	57.8396
5.912	60.5267
5.872	63.3048
5.832	65.3112
5.793	66.1122
5.755	68.0199
5.716	69.7553
5.679	70.213
5.642	72.0098
5.605	71.2716
5.569	71.7616
5.533	72.2137
5.498	73.1157
5.463	74.7962
5.429	75.3349
5.395	75.8208
5.362	76.6373
5.329	76.9836
5.296	77.6393
5.264	77.8177
5.232	78.1648
5.2	78.5767
5.169	78.6845
5.139	78.9011
5.108	79.0892
5.078	79.3085
5.049	79.2957
5.019	79.4747
4.99	79.3603
4.962	79.3769
4.933	79.3607
4.905	79.1846
4.878	78.9845
4.85	78.9349
4.823	78.8221
4.796	78.8037
4.77	78.7607
4.744	78.7943
4.718	78.7487
4.692	78.5056
4.667	78.2466
4.642	78.0334
4.617	78.1462
4.592	78.5368
4.568	79.1489
4.544	79.677
4.52	80.1382
4.497	80.3924
4.474	80.6169
4.45	80.8601
4.428	80.9833
4.405	81.0495
4.383	81.126
4.361	81.4534
4.339	81.308
4.317	80.7576
4.296	78.8363
4.274	70.2576
4.253	75.2876
4.233	80.4838
4.212	81.9681
4.191	82.7006
4.171	83.2199
4.151	83.5652
4.131	83.834
4.112	83.9458
4.092	84.0861
4.073	84.1781
4.054	84.2734
4.035	84.4459
4.016	84.5931
3.998	84.6769
3.979	84.6858
3.961	84.753
3.943	84.7934
3.925	84.8661
3.907	84.9351
3.89	84.9772
3.872	85.044
3.855	84.9931
3.838	85.0146
3.821	84.9528
3.804	84.9751
3.787	85.0682
3.771	84.9169
3.754	84.9212
3.738	84.8162
3.722	84.6838
3.706	84.4788
3.69	84.4369
3.675	84.2644
3.659	84.0932
3.644	83.96
3.628	83.7356
3.613	83.5644
3.598	83.1568
3.583	82.8249
3.568	82.3662
3.554	82.1228
3.539	81.7064
3.525	81.3359
3.51	80.2557
3.496	79.5503
3.482	79.2319
3.468	78.715
3.454	78.2423
3.441	77.4347
3.427	76.0907
3.413	75.085
3.4	74.9711
3.387	74.6757
3.373	73.5294
3.36	73.2506
3.347	72.7624
3.334	72.0777
3.321	71.3553
3.309	70.4267
3.296	69.3937
3.284	68.3174
3.271	67.3061
3.259	66.3001
3.247	65.0165
3.234	64.0565
3.222	62.8111
3.21	61.6224
3.199	60.5296
3.187	59.363
3.175	58.2069
3.163	57.1922
3.152	56.0884
3.14	55.1579
3.129	54.1376
3.118	53.216
3.107	52.5277
3.095	51.7589
3.084	51.3002
3.073	50.6665
3.063	50.2801
3.052	49.8856
3.041	49.5821
3.03	49.1343
3.02	48.6088
3.009	48.1751
2.999	47.9658
2.988	47.5198
2.978	47.0417
2.968	47.0532
2.958	46.7471
2.948	46.6702
2.938	46.4917
2.928	46.4061
2.918	46.3215
2.908	46.4525
2.898	46.7933
2.888	46.9656
2.879	47.5009
2.869	48.1004
2.86	48.6459
2.85	49.1322
2.841	49.6769
2.832	50.3765
2.822	51.5511
2.813	52.7329
2.804	54.398
2.795	55.1572
2.786	57.1049
2.777	57.9621
2.768	59.6438
2.759	60.9183
2.751	62.8289
2.742	66.2099
2.733	67.6836
2.725	72.3196
2.716	73.4875
2.707	76.0908
2.699	77.4783
2.691	79.0431
2.682	80.3635
2.674	81.3581
2.666	84.1345
2.658	81.9444
2.649	82.2035
2.641	82.8524
2.633	83.3987
2.625	83.5526
2.617	84.8046
2.609	84.0018
2.602	84.0974
2.594	86.1081
2.586	84.4731
2.578	84.3572
2.571	84.6441
2.563	85.4076
2.555	84.1047
2.548	84.4408
2.54	84.2733
2.533	84.4175
2.525	84.2854
2.518	84.2927
2.511	84.3449
2.504	84.1928
2.496	84.2465
2.489	84.1069
2.482	83.8976
2.475	83.5068
2.468	83.6895
2.461	83.863
2.454	84.1723
2.447	84.0497
2.44	84.2739
2.433	84.5024
2.426	84.5278
2.419	84.4184
2.413	84.2741
2.406	84.3484
2.399	84.3728
2.393	84.5267
2.386	84.5744
2.379	84.8499
2.373	84.9294
2.366	85.1059
2.36	85.2294
2.354	85.4049
2.347	85.3471
2.341	85.7532
2.334	85.9779
2.328	86.1158
2.322	86.5415
2.316	86.6255
2.309	86.4421
2.303	86.5508
2.297	86.593
2.291	86.8193
2.285	86.7423
2.279	86.8023
2.273	87.0002
2.267	86.9674
2.261	86.9567
2.255	87.0689
2.249	86.792
2.244	86.7858
2.238	86.6341
2.232	86.7454
2.226	86.7195
2.22	86.7712
2.215	86.8535
2.209	86.82
2.204	87.0038
2.198	86.8599
2.192	86.9325
2.187	86.9713
2.181	86.7997
2.176	86.8707
2.17	86.737
2.165	86.9143
2.159	86.8648
2.154	87.1213
2.149	86.9336
2.143	86.9551
2.138	86.9899
2.133	87.145
2.128	87.0026
2.122	87.1727
2.117	87.0946
2.112	87.1401
2.107	86.9061
2.102	87.0886
2.097	87.0661
2.091	87.1657
2.086	87.0259
2.081	86.6967
2.076	86.7969
2.071	87.2367
2.066	86.7505
2.062	86.762
2.057	86.7604
2.052	86.9541
2.047	86.5957
2.042	86.8145
2.037	86.6367
2.032	86.4551
2.028	86.5261
2.023	86.4019
2.018	86.4873
2.014	86.5936
2.009	86.4145
2.004	86.3251
