Name: Cassiterite SnO_2
Type: Mineral
Class: Oxides
Particle Size: 45-125um
Sample No.: O-3A
Owner: JPL
Origin: USA, South Dakota, Lawrence County, Tinton.
Measurement: Hemispherical reflectance
X Units: Wavelength (micrometers)
Y Units: Reflectance (percent)
wavelength	value
2.5	5.88197
2.494	6.02198
2.488	5.99777
2.482	5.93344
2.476	5.90064
2.47	6.02329
2.464	5.94996
2.458	6.04902
2.452	6.01687
2.446	6.01559
2.44	6.00923
2.434	5.94723
2.428	6.01136
2.422	6.08898
2.416	6.02178
2.41	6.0888
2.404	6.00339
2.398	6.04627
2.392	6.07215
2.386	6.10153
2.38	6.09608
2.374	6.1201
2.368	6.09366
2.362	6.11569
2.356	6.06217
2.35	6.07224
2.344	6.10868
2.338	6.09641
2.332	6.09917
2.326	6.08228
2.32	6.09052
2.314	6.09407
2.308	6.11086
2.302	6.12118
2.296	6.09886
2.29	6.13209
2.284	6.09194
2.278	6.14894
2.272	6.1216
2.266	6.1212
2.26	6.17265
2.254	6.13934
2.248	6.13231
2.242	6.15139
2.236	6.08584
2.23	6.08111
2.224	6.13427
2.218	6.14959
2.212	6.23253
2.206	6.08452
2.2	6.11299
2.194	6.09247
2.188	6.08414
2.182	6.17623
2.176	6.17447
2.17	6.22221
2.164	6.18401
2.158	6.33389
2.152	6.26656
2.146	6.30227
2.14	6.32794
2.134	6.32796
2.128	6.24931
2.122	6.31873
2.116	6.21059
2.11	6.25897
2.104	6.21292
2.098	6.21515
2.092	6.1909
2.086	6.28113
2.08	6.22645
2.074	6.28331
2.068	6.23343
2.062	6.26168
2.056	6.29902
2.05	6.29628
2.044	6.26774
2.038	6.29552
2.032	6.31914
2.026	6.30607
2.02	6.31408
2.014	6.31599
2.008	6.27517
2.002	6.27878
1.996	6.28071
1.99	6.28646
1.984	6.17386
1.978	6.297
1.972	6.22166
1.966	6.26953
1.96	6.25653
1.954	6.28445
1.948	6.23008
1.942	6.25997
1.936	6.224
1.93	6.29007
1.924	6.24235
1.918	6.27334
1.912	6.28684
1.906	6.17345
1.9	6.21779
1.894	6.3059
1.888	6.26185
1.882	6.29741
1.876	6.28912
1.87	6.24816
1.864	6.27301
1.858	6.28881
1.852	6.21624
1.846	6.20504
1.84	6.23336
1.834	6.2834
1.828	6.25116
1.822	6.26048
1.816	6.19881
1.81	6.24687
1.804	6.22203
1.798	6.23874
1.792	6.2052
1.786	6.16386
1.78	6.1828
1.774	6.22968
1.768	6.17374
1.762	6.1935
1.756	6.2123
1.75	6.17337
1.744	6.23007
1.738	6.17838
1.732	6.19154
1.726	6.24801
1.72	6.18512
1.714	6.15359
1.708	6.18737
1.702	6.18101
1.696	6.19748
1.69	6.12082
1.684	6.18852
1.678	6.19216
1.672	6.13954
1.666	6.22989
1.66	6.27983
1.654	6.18525
1.648	6.16213
1.642	6.34411
1.636	6.23003
1.63	6.17331
1.624	6.20091
1.618	6.21296
1.612	6.31389
1.606	6.28189
1.6	6.24648
1.594	6.22218
1.588	6.27358
1.582	6.33847
1.576	6.30473
1.57	6.29701
1.564	6.4104
1.558	6.30518
1.552	6.3851
1.546	6.3327
1.54	6.33505
1.534	6.42954
1.528	6.37676
1.522	6.42244
1.516	6.43282
1.51	6.41045
1.504	6.48506
1.498	6.52217
1.492	6.46848
1.486	6.4825
1.48	6.51709
1.474	6.52919
1.468	6.50944
1.462	6.56559
1.456	6.56445
1.45	6.59001
1.444	6.61463
1.438	6.59629
1.432	6.56083
1.426	6.61439
1.42	6.53147
1.414	6.57846
1.408	6.64931
1.402	6.71942
1.396	6.68236
1.39	6.76789
1.384	6.7333
1.378	6.87537
1.372	6.81743
1.366	6.80808
1.36	6.70973
1.354	6.83825
1.348	6.79285
1.342	6.85787
1.336	6.77175
1.33	6.76972
1.324	6.68387
1.318	6.80908
1.312	6.86933
1.306	6.86999
1.3	6.89791
1.294	6.83195
1.288	6.85186
1.282	6.86774
1.276	6.85389
1.27	6.85349
1.264	6.82603
1.258	6.8297
1.252	6.81947
1.246	6.89776
1.24	6.85422
1.234	6.85759
1.228	6.91352
1.222	6.89501
1.216	6.93004
1.21	6.94563
1.204	6.93803
1.198	6.96635
1.192	6.98709
1.186	6.96688
1.18	6.99342
1.174	7.00234
1.168	6.93566
1.162	7.00938
1.156	7.02684
1.15	7.07397
1.144	7.07678
1.138	7.17078
1.132	7.12845
1.126	7.10375
1.12	7.17098
1.114	7.1552
1.108	7.095
1.102	7.15237
1.096	7.13
1.09	7.25798
1.084	7.13332
1.078	7.2264
1.072	7.20955
1.066	7.16562
1.06	7.29256
1.054	7.28678
1.048	7.29946
1.042	7.29019
1.036	7.28356
1.03	7.25733
1.024	7.38259
1.018	7.32529
1.012	7.26695
1.006	7.37204
1	7.36959
0.994	7.39763
0.988	7.29245
0.982	7.35581
0.976	7.27968
0.97	7.25326
0.964	7.33601
0.958	7.26189
0.952	7.25249
0.946	7.22856
0.94	7.18858
0.934	7.13809
0.928	7.16841
0.922	7.12377
0.916	7.08473
0.91	7.09222
0.904	7.10351
0.898	7.05969
0.892	7.06883
0.886	7.05598
0.88	6.97771
0.874	7.00273
0.868	6.96877
0.862	7.04527
0.856	7.35126
0.85	7.3427
0.844	7.3384
0.838	7.34747
0.832	7.34118
0.826	7.35152
0.82	7.35696
0.814	7.35979
0.808	7.363
0.802	7.36636
0.796	7.36386
0.79	7.36558
0.784	7.36103
0.778	7.34615
0.772	7.3377
0.766	7.33008
0.76	7.3142
0.754	7.30648
0.748	7.28549
0.742	7.28111
0.736	7.26114
0.73	7.23744
0.724	7.21789
0.718	7.19772
0.712	7.17525
0.706	7.15118
0.7	7.12214
0.694	7.10144
0.688	7.0783
0.682	7.04735
0.676	7.02648
0.67	7.00001
0.664	6.97098
0.658	6.94955
0.652	6.9238
0.646	6.89753
0.64	6.87206
0.634	6.84594
0.628	6.82545
0.622	6.80239
0.616	6.77643
0.61	6.75587
0.604	6.73427
0.598	6.71715
0.592	6.7044
0.586	6.68743
0.58	6.67366
0.574	6.65815
0.568	6.64671
0.562	6.63515
0.556	6.63467
0.55	6.62847
0.544	6.62297
0.538	6.61566
0.532	6.61289
0.526	6.60691
0.52	6.60318
0.514	6.6003
0.508	6.59645
0.502	6.60507
0.496	6.6144
0.49	6.62534
0.484	6.63942
0.478	6.6221
0.472	6.6239
0.466	6.62485
0.46	6.62211
0.454	6.62457
0.448	6.62602
0.442	6.62864
0.436	6.62393
0.43	6.62451
0.424	6.63011
0.418	6.62801
0.412	6.6393
0.406	6.6496
0.4	6.67015
