Name: Sulphur S
Type: Mineral
Class: Elements
Particle Size: 0-45um
Sample No.: E-2A
Owner: JPL
Wavelength Range: VNIR-SWIR
Measurement: Hemispherical reflectance
X Units: Wavelength (micrometers)
Y Units: Reflectance (percent)
wavelength	value
0.4	3.77
0.403	4.19
0.406	4.96
0.409	5.94
0.412	7.12
0.415	8.72
0.418	10.72
0.421	13.03
0.424	15.9
0.427	18.97
0.43	22.57
0.433	26.63
0.436	30.79
0.439	35.25
0.442	39.78
0.445	44.38
0.448	48.79
0.451	52.95
0.454	57.15
0.457	60.77
0.46	62.85
0.463	67.9
0.466	70.9
0.469	73.48
0.472	75.86
0.475	77.86
0.478	79.77
0.481	81.16
0.484	82.45
0.487	83.5
0.49	84.25
0.493	84.98
0.496	85.54
0.499	86.1
0.502	86.37
0.505	86.6
0.508	87.04
0.511	87.09
0.514	87.43
0.517	87.46
0.52	87.57
0.523	87.65
0.526	87.61
0.529	87.82
0.532	87.65
0.535	87.73
0.538	87.91
0.541	87.81
0.544	88.01
0.547	87.82
0.55	87.79
0.553	88.07
0.556	88.1
0.559	88.01
0.562	88.25
0.565	88.26
0.568	88.41
0.571	88.3
0.574	88.04
0.577	88.07
0.58	87.87
0.583	88.06
0.586	88.11
0.589	87.99
0.592	87.98
0.595	88.17
0.598	88.09
0.601	88.09
0.604	88.29
0.607	88.08
0.61	88.34
0.613	88.26
0.616	88.1
0.619	88.13
0.622	87.94
0.625	88.15
0.628	88.28
0.631	88.13
0.634	88.15
0.637	87.98
0.64	88.15
0.643	88.13
0.646	88.16
0.649	88.21
0.652	88.15
0.655	88.13
0.658	88.14
0.661	88.21
0.664	88.32
0.667	88.15
0.67	88.09
0.673	88.16
0.676	88.27
0.679	88.27
0.682	88.08
0.685	88.11
0.688	88.33
0.691	88.1
0.694	88.13
0.697	88.25
0.7	88.21
0.703	88.16
0.706	88.28
0.709	88.24
0.712	88.32
0.715	88.23
0.718	88.23
0.721	88.34
0.724	88.33
0.727	88.23
0.73	88.18
0.733	88.16
0.736	88.22
0.739	88.11
0.742	88.22
0.745	88.24
0.748	88.18
0.751	88.28
0.754	88.17
0.757	88.23
0.76	88.17
0.763	88.12
0.766	88.23
0.769	88.24
0.772	88.14
0.775	88.06
0.778	88.12
0.781	88.13
0.784	88.14
0.787	88.18
0.79	88.13
0.793	88.13
0.796	88.22
0.799	88.27
0.808	88.23
0.82	88.3
0.832	88.39
0.844	88.33
0.856	88.39
0.868	88.49
0.88	88.43
0.892	88.55
0.904	88.55
0.916	88.45
0.928	88.56
0.94	88.61
0.952	88.72
0.964	88.83
0.976	88.84
0.988	88.68
1	88.71
1.012	88.9
1.024	88.71
1.036	88.8
1.048	88.73
1.06	88.82
1.072	88.89
1.084	88.89
1.096	88.86
1.108	88.88
1.12	89.03
1.132	89.03
1.144	88.92
1.156	88.92
1.168	88.8
1.18	88.73
1.192	88.69
1.204	88.82
1.216	88.88
1.228	88.81
1.24	88.9
1.252	88.98
1.264	88.87
1.276	88.89
1.288	88.88
1.3	88.78
1.312	88.76
1.324	88.79
1.336	88.82
1.348	88.75
1.36	88.73
1.372	88.68
1.384	88.69
1.396	88.73
1.408	88.87
1.42	88.77
1.432	88.72
1.444	88.82
1.456	88.89
1.468	88.92
1.48	88.92
1.492	88.83
1.504	88.87
1.516	88.87
1.528	89.04
1.54	88.94
1.552	88.89
1.564	88.88
1.576	88.95
1.588	89.01
1.6	88.92
1.612	88.9
1.624	88.96
1.636	89.01
1.648	89.09
1.66	89.12
1.672	89.1
1.684	89.08
1.696	89.18
1.708	89.3
1.72	89.16
1.732	89.12
1.744	89.01
1.756	88.94
1.768	88.96
1.78	88.95
1.792	89.16
1.804	89.16
1.816	89.12
1.828	89.03
1.84	88.93
1.852	88.9
1.864	88.98
1.876	89.05
1.888	89
1.9	88.98
1.912	88.85
1.924	88.93
1.936	89.02
1.948	88.94
1.96	88.91
1.972	88.94
1.984	89.07
1.996	89.14
2.008	89.31
2.02	89.63
2.032	89.55
2.044	89.56
2.056	89.52
2.068	89.57
2.08	89.73
2.092	89.63
2.104	89.85
2.116	90.06
2.128	90.09
2.14	89.99
2.152	89.83
2.164	89.67
2.176	89.58
2.188	89.5
2.2	89.49
2.212	89.38
2.224	89.36
2.236	89.41
2.248	89.49
2.26	89.51
2.272	89.61
2.284	89.44
2.296	89.52
2.308	89.51
2.32	89.85
2.332	89.99
2.344	90.12
2.356	90.07
2.368	89.9
2.38	89.93
2.392	90.01
2.404	90.05
2.416	89.99
2.428	90.06
2.44	90.1
2.452	90.08
2.464	89.89
2.476	89.86
2.488	90.23
2.5	90.76
