Name: Hemimorphite Zn_4Si_2O_7(OH)_2.H_2O
Type: Mineral
Class: Silicates
Subclass: Sorosilicate
Particle Size: 0-45um
Sample No.: SS-2A
Owner: JPL
Wavelength Range: VNIR-SWIR
Origin: Mexico, Durango, Ojuela Mine
Measurement: Hemispherical reflectance
X Units: Wavelength (micrometers)
Y Units: Reflectance (percent)
wavelength	value
0.4	86.94
0.403	87.06
0.406	87.24
0.409	87.13
0.412	87.18
0.415	87.24
0.418	87.36
0.421	87.47
0.424	87.68
0.427	87.54
0.43	87.89
0.433	87.91
0.436	88.14
0.439	88.26
0.442	88.06
0.445	88.29
0.448	88.35
0.451	88.57
0.454	88.66
0.457	88.53
0.46	88.66
0.463	88.79
0.466	88.66
0.469	88.84
0.472	88.97
0.475	89.11
0.478	89.05
0.481	89.2
0.484	89.12
0.487	89.2
0.49	89.22
0.493	89.37
0.496	89.27
0.499	89.41
0.502	89.42
0.505	89.67
0.508	89.79
0.511	89.79
0.514	89.8
0.517	90.02
0.52	90.15
0.523	90.16
0.526	90.09
0.529	90.21
0.532	90.48
0.535	90.3
0.538	90.59
0.541	90.41
0.544	90.54
0.547	90.68
0.55	90.76
0.553	90.89
0.556	91.12
0.559	91.08
0.562	91.54
0.565	91.66
0.568	91.83
0.571	91.83
0.574	91.63
0.577	91.9
0.58	91.88
0.583	91.88
0.586	92.06
0.589	92.17
0.592	92.23
0.595	92.29
0.598	92.36
0.601	92.62
0.604	92.63
0.607	92.69
0.61	92.64
0.613	92.64
0.616	92.58
0.619	92.75
0.622	92.7
0.625	92.7
0.628	92.7
0.631	92.7
0.634	92.87
0.637	92.87
0.64	92.76
0.643	92.75
0.646	92.99
0.649	93.05
0.652	92.99
0.655	93.1
0.658	92.99
0.661	92.99
0.664	93.1
0.667	93.22
0.67	93.05
0.673	92.99
0.676	93.1
0.679	93.05
0.682	93.28
0.685	93.34
0.688	93.16
0.691	93.22
0.694	93.22
0.697	93.28
0.7	93.21
0.703	93.34
0.706	93.22
0.709	93.34
0.712	93.28
0.715	93.34
0.718	93.51
0.721	93.34
0.724	93.39
0.727	93.39
0.73	93.28
0.733	93.28
0.736	93.22
0.739	93.22
0.742	93.34
0.745	93.22
0.748	93.22
0.751	93.22
0.754	93.22
0.757	93.4
0.76	93.34
0.763	93.22
0.766	93.45
0.769	93.28
0.772	93.4
0.775	93.45
0.778	93.34
0.781	93.4
0.784	93.45
0.787	93.34
0.79	93.45
0.793	93.51
0.796	93.34
0.799	93.45
0.808	93.44
0.82	93.32
0.832	93.38
0.844	93.61
0.856	93.61
0.868	93.61
0.88	93.56
0.892	93.5
0.904	93.61
0.916	93.61
0.928	93.5
0.94	93.14
0.952	92.72
0.964	92.24
0.976	92.3
0.988	92.72
1	93.26
1.012	93.5
1.024	93.84
1.036	93.9
1.048	93.84
1.06	93.9
1.072	93.96
1.084	93.85
1.096	93.79
1.108	93.79
1.12	93.67
1.132	93.26
1.144	92.24
1.156	91.29
1.168	91.79
1.18	92.13
1.192	92.36
1.204	92.57
1.216	92.81
1.228	92.88
1.24	92.77
1.252	92.72
1.264	92.63
1.276	92.44
1.288	92.35
1.3	92.05
1.312	91.62
1.324	90.69
1.336	89.85
1.348	88.87
1.36	87.45
1.372	85.77
1.384	82.49
1.396	77.2
1.408	71.43
1.42	69.94
1.432	73.48
1.444	77.11
1.456	78.82
1.468	80.01
1.48	82.37
1.492	84.43
1.504	85.81
1.516	86.77
1.528	87.64
1.54	88.48
1.552	88.88
1.564	89.36
1.576	89.82
1.588	90.09
1.6	90.44
1.612	90.54
1.624	90.8
1.636	91.06
1.648	91.15
1.66	91.32
1.672	91.35
1.684	91.22
1.696	91.08
1.708	90.78
1.72	90.21
1.732	89.69
1.744	88.82
1.756	87.74
1.768	86.37
1.78	84.87
1.792	83.37
1.804	82.33
1.816	81.45
1.828	80.78
1.84	80.48
1.852	80.19
1.864	78.71
1.876	75.14
1.888	69.34
1.9	60.84
1.912	57.11
1.924	61.42
1.936	67.13
1.948	69.85
1.96	70.82
1.972	72
1.984	74.16
1.996	76.5
2.008	78.36
2.02	79.71
2.032	80.77
2.044	81.49
2.056	81.75
2.068	82.05
2.08	82.3
2.092	82.32
2.104	82.17
2.116	81.91
2.128	81.35
2.14	80.49
2.152	79.46
2.164	78.39
2.176	77.12
2.188	76.15
2.2	75.27
2.212	74.68
2.224	74.77
2.236	75.3
2.248	75.86
2.26	76.27
2.272	76.34
2.284	76.19
2.296	75.66
2.308	75
2.32	73.93
2.332	72.48
2.344	70.51
2.356	68.15
2.368	65.95
2.38	64.37
2.392	63.1
2.404	62.05
2.416	60.93
2.428	60.02
2.44	59.16
2.452	58.22
2.464	57.04
2.476	55.58
2.488	54.25
2.5	52.97
