Name: Jarosite KFe_3^3+(SO_4)_2(OH)_6
Type: Mineral
Class: Sulfates
Particle Size: 0-45um
Sample No.: SO-7A
Owner: JPL
Wavelength Range: VNIR-SWIR
Origin: Mexico, Chihuahua
Measurement: Hemispherical reflectance
X Units: Wavelength (micrometers)
Y Units: Reflectance (percent)
wavelength	value
0.4	5.02
0.403	5.4
0.406	5.87
0.409	6.23
0.412	6.64
0.415	7.12
0.418	7.61
0.421	7.82
0.424	8.14
0.427	8.41
0.43	8.47
0.433	8.62
0.436	8.59
0.439	8.9
0.442	9.37
0.445	9.97
0.448	10.6
0.451	11.36
0.454	12.2
0.457	12.91
0.46	13.44
0.463	14.62
0.466	15.29
0.469	16.13
0.472	16.97
0.475	17.8
0.478	18.9
0.481	19.84
0.484	20.85
0.487	21.85
0.49	22.82
0.493	23.66
0.496	24.58
0.499	25.38
0.502	26.15
0.505	26.96
0.508	27.59
0.511	28.17
0.514	28.85
0.517	29.35
0.52	29.99
0.523	30.38
0.526	30.93
0.529	31.36
0.532	31.84
0.535	32.21
0.538	32.72
0.541	33.13
0.544	33.6
0.547	33.99
0.55	34.51
0.553	34.96
0.556	35.48
0.559	35.73
0.562	36.55
0.565	37.1
0.568	37.46
0.571	38.04
0.574	38.54
0.577	39.21
0.58	39.75
0.583	40.59
0.586	41.16
0.589	41.93
0.592	42.74
0.595	43.5
0.598	44.51
0.601	45.38
0.604	46.17
0.607	47.1
0.61	47.87
0.613	48.83
0.616	49.77
0.619	50.53
0.622	51.39
0.625	52.44
0.628	53.21
0.631	54.02
0.634	54.75
0.637	55.6
0.64	56.26
0.643	57.03
0.646	57.54
0.649	58.31
0.652	58.97
0.655	59.58
0.658	60.06
0.661	60.66
0.664	61.3
0.667	61.84
0.67	62.33
0.673	62.77
0.676	63.35
0.679	63.81
0.682	64.33
0.685	64.69
0.688	65.11
0.691	65.69
0.694	66.08
0.697	66.48
0.7	66.73
0.703	67.51
0.706	67.87
0.709	68.25
0.712	68.47
0.715	68.87
0.718	69.14
0.721	69.25
0.724	69.51
0.727	69.58
0.73	69.78
0.733	69.97
0.736	69.94
0.739	69.81
0.742	69.81
0.745	69.73
0.748	69.54
0.751	69.32
0.754	69.09
0.757	68.68
0.76	68.51
0.763	68.12
0.766	67.76
0.769	67.25
0.772	66.81
0.775	66.43
0.778	66.04
0.781	65.63
0.784	65.16
0.787	64.64
0.79	64.28
0.793	63.86
0.796	63.47
0.799	63.04
0.808	61.85
0.82	60.22
0.832	58.7
0.844	57.56
0.856	56.55
0.868	55.7
0.88	55.08
0.892	54.68
0.904	54.35
0.916	54.31
0.928	54.45
0.94	54.87
0.952	55.34
0.964	55.89
0.976	56.51
0.988	57.32
1	58.17
1.012	59.26
1.024	60.21
1.036	61.25
1.048	62.26
1.06	63.3
1.072	64.29
1.084	65.32
1.096	66.27
1.108	67.28
1.12	68.33
1.132	69.4
1.144	70.24
1.156	71.2
1.168	72.17
1.18	73.12
1.192	74.07
1.204	75.12
1.216	75.95
1.228	76.91
1.24	77.78
1.252	78.68
1.264	79.57
1.276	80.41
1.288	81.23
1.3	82
1.312	82.75
1.324	83.43
1.336	84.21
1.348	84.97
1.36	85.68
1.372	86.31
1.384	86.88
1.396	87.18
1.408	87.54
1.42	87.85
1.432	88.08
1.444	87.89
1.456	87.16
1.468	86.26
1.48	86.01
1.492	86.75
1.504	87.18
1.516	87.42
1.528	87.42
1.54	87.55
1.552	87.68
1.564	87.78
1.576	87.85
1.588	87.97
1.6	87.94
1.612	87.86
1.624	87.68
1.636	87.52
1.648	87.37
1.66	87.34
1.672	87.27
1.684	87.12
1.696	86.94
1.708	86.72
1.72	86.5
1.732	86.13
1.744	85.68
1.756	85.27
1.768	84.89
1.78	84.5
1.792	84.16
1.804	83.78
1.816	83.19
1.828	82.5
1.84	81.55
1.852	80.75
1.864	80.67
1.876	81.16
1.888	81.9
1.9	82.48
1.912	82.8
1.924	82.79
1.936	82.61
1.948	82.69
1.96	82.58
1.972	82.6
1.984	82.69
1.996	82.76
2.008	82.58
2.02	82.58
2.032	82.4
2.044	82.29
2.056	82.08
2.068	81.98
2.08	81.87
2.092	81.7
2.104	81.55
2.116	81.34
2.128	80.95
2.14	80.5
2.152	79.99
2.164	79.52
2.176	78.92
2.188	78.25
2.2	77.51
2.212	76.63
2.224	75.9
2.236	74.93
2.248	73.73
2.26	72.51
2.272	71.6
2.284	71.5
2.296	72.18
2.308	73.34
2.32	74.59
2.332	75.57
2.344	75.88
2.356	75.71
2.368	75.06
2.38	74.37
2.392	73.54
2.404	72.85
2.416	72.17
2.428	71.56
2.44	70.86
2.452	70.38
2.464	70.01
2.476	69.66
2.488	69.67
2.5	69.68
