Name: Diabase
Type: Rock
Class: Igneous
Subclass: Mafic
Particle Size: Solid surface
Sample No.: Ward37.txt
Owner: JPL
Origin: Ward's Collection of American Rocks.  Sample locality - Somerville, Suffolk County, Massachusetts.
Description: Coarse grained, greenish-gray rock showing diabase texture.
Measurement: Hemispherical reflectance
X Units: Wavelength (micrometers)
Y Units: Reflectance (percent)
wavelength	value
15.3871	4.80499
15.118	3.89632
14.8581	3.80549
14.6069	3.33468
14.3642	3.51556
14.1293	4.03447
13.9021	4.3177
13.682	4.03508
13.4687	4.30891
13.2621	4.45201
13.0616	4.05814
12.8672	3.73832
12.6784	3.98057
12.4951	3.89078
12.317	4.43087
12.1439	5.11681
11.9757	5.522
11.812	6.13717
11.6527	6.98537
11.4977	7.37454
11.3468	8.21346
11.1997	8.17292
11.0564	8.69069
10.9168	9.21346
10.7806	9.81217
10.6478	10.5108
10.5182	11.2819
10.3917	12.1446
10.2683	13.1695
10.1477	14.6057
10.0299	15.7219
9.9148	16.5234
9.8024	15.6751
9.6925	16.7616
9.585	16.9621
9.4798	14.1087
9.377	12.5246
9.2763	12.1424
9.1778	11.3268
9.0814	10.6165
8.987	10.1405
8.8945	9.69913
8.8039	9.39196
8.7151	9.53403
8.6281	8.92839
8.5428	8.79413
8.4592	8.59042
8.3772	8.55869
8.2967	7.26936
8.2179	5.28818
8.1404	3.23928
8.0645	2.59445
7.9899	2.08955
7.9167	1.91244
7.8449	1.92068
7.7743	1.81029
7.705	1.92657
7.6369	1.9944
7.57	2.08229
7.5043	2.0634
7.4397	2.14585
7.3762	2.26048
7.3138	2.43006
7.2524	2.62456
7.1921	2.53043
7.1327	2.81356
7.0743	2.97152
7.0169	3.12631
6.9604	3.22239
6.9047	3.21835
6.85	3.31936
6.7962	3.51589
6.7431	3.53853
6.6909	3.71505
6.6395	3.86155
6.5889	3.95923
6.539	3.89522
6.49	3.89545
6.4416	3.66
6.3939	3.25747
6.347	3.25943
6.3007	3.10546
6.2551	3.18774
6.2101	3.00799
6.1658	3.07041
6.1222	3.09987
6.0791	3.13476
6.0366	3.26591
5.9948	3.1143
5.9535	3.26502
5.9127	3.37422
5.8726	3.4932
5.8329	3.58528
5.7938	3.69201
5.7552	3.67723
5.7172	3.77653
5.6796	3.85067
5.6425	4.11518
5.6059	3.97697
5.5698	4.0747
5.5341	4.19177
5.4989	4.36365
5.4641	4.43546
5.4298	4.5816
5.3959	4.64183
5.3624	4.77909
5.3294	4.68482
5.2967	4.84818
5.2644	4.89467
5.2326	5.00769
5.2011	5.06193
5.17	5.18301
5.1392	5.18914
5.1088	5.29968
5.0788	5.3989
5.0491	5.46086
5.0198	5.52379
4.9908	5.60376
4.9622	5.83838
4.9338	5.9689
4.9058	6.00041
4.8781	6.18923
4.8508	6.31112
4.8237	6.3651
4.7969	6.37005
4.7704	6.49885
4.7443	6.49689
4.7184	6.88737
4.6927	6.98861
4.6674	7.14916
4.6423	7.31844
4.6175	7.59332
4.593	7.79328
4.5687	8.06443
4.5447	8.32415
4.5209	8.41543
4.4974	8.91279
4.4741	9.10408
4.451	9.4203
4.4282	9.47161
4.4057	9.86882
4.3833	9.95187
4.3612	10.3428
4.3393	10.4811
4.3176	10.7706
4.2962	11.1156
4.2749	11.2033
4.2539	11.4757
4.233	11.7899
4.2124	11.7656
4.192	12.0188
4.1717	12.0032
4.1517	12.4076
4.1319	12.0057
4.1122	12.2652
4.0927	12.3883
4.0734	12.3821
4.0543	12.5971
4.0354	12.4639
4.0166	12.3753
3.9981	12.4408
3.9796	12.2702
3.9614	12.2845
3.9433	12.6281
3.9254	12.732
3.9077	12.8562
3.8901	12.9938
3.8726	12.9263
3.8554	12.74
3.8382	12.9738
3.8213	13.0053
3.8045	13.159
3.7878	13.2995
3.7713	13.2542
3.7549	13.2674
3.7386	13.122
3.7225	13.1227
3.7066	13.076
3.6907	12.7966
3.675	12.9213
3.6595	12.6824
3.644	12.4927
3.6287	12.53
3.6136	12.5147
3.5985	12.5071
3.5836	12.1375
3.5688	12.0101
3.5541	11.7978
3.5396	11.8949
3.5251	11.3696
3.5108	10.6647
3.4966	10.6112
3.4825	10.3193
3.4685	10.6529
3.4547	10.2595
3.4409	10.2979
3.4273	9.72908
3.4137	9.37303
3.4003	9.65084
3.387	9.52783
3.3738	9.39013
3.3606	9.48403
3.3476	9.41022
3.3347	9.37009
3.3219	9.30745
3.3092	9.35416
3.2965	9.28658
3.284	8.74163
3.2716	9.0613
3.2593	8.29124
3.247	8.56963
3.2348	8.04932
3.2228	8.24392
3.2108	8.40047
3.1989	7.80468
3.1871	7.78284
3.1754	7.68865
3.1638	7.36617
3.1523	7.37871
3.1408	7.1771
3.1294	6.97276
3.1181	6.5708
3.1069	6.39402
3.0958	6.77752
3.0848	6.6163
3.0738	6.3377
3.0629	6.13151
3.0521	6.18606
3.0413	6.52053
3.0307	5.87734
3.0201	5.79981
3.0096	5.65171
2.9991	5.51243
2.9887	5.72171
2.9784	5.96254
2.9682	5.48912
2.9581	5.59101
2.948	6.21611
2.9379	5.52561
2.928	5.55621
2.9181	6.26894
2.9083	5.25046
2.8985	5.66192
2.8888	5.45089
2.8792	5.5737
2.8697	5.90992
2.8602	5.72111
2.8507	5.31117
2.8413	5.58569
2.832	5.57995
2.8228	5.72298
2.8136	5.7492
2.8045	5.678
2.7954	5.9314
2.7864	6.0305
2.7774	5.97969
2.7685	6.06261
2.7597	6.04541
2.7509	6.38678
2.7422	7.12285
2.7335	7.19427
2.7249	8.47804
2.7163	9.45574
2.7078	11.5819
2.6994	13.3343
2.691	14.688
2.6826	15.5793
2.6743	15.6692
2.666	16.4377
2.6578	16.7236
2.6497	16.7945
2.6416	16.6936
2.6336	17.1443
2.6256	17.0384
2.6176	17.5415
2.6097	16.9603
2.6018	17.3717
2.594	17.1299
2.5863	17.2412
2.5785	17.1805
2.5709	17.7279
2.5633	17.6496
2.5557	17.0749
2.5481	17.6441
2.5406	17.8677
2.5332	17.2386
2.5258	16.8657
2.5184	17.2038
2.5111	17.4787
2.5038	17.3789
2.4966	17.7973
2.4894	17.4273
2.4823	17.6903
2.4752	18.3446
2.4681	17.4034
2.4611	18.0544
2.4541	18.1813
2.4471	17.8967
2.4402	17.9304
2.4333	18.2741
2.4265	18.5533
2.4197	18.0522
2.413	18.3222
2.4063	18.3013
2.3996	18.0562
2.3929	17.8219
2.3863	18.3283
2.3798	17.9997
2.3732	17.7103
2.3667	17.7885
2.3603	17.2326
2.3538	17.0661
2.3474	17.5542
2.3411	18.0701
2.3347	17.0835
2.3285	18.497
2.3222	18.8035
2.316	19.8997
2.3098	19.5271
2.3036	19.8364
2.2975	19.9662
2.2914	20.4095
2.2854	20.5597
2.2793	21.2739
2.2733	20.8802
2.2674	20.4567
2.2614	21.22
2.2555	20.561
2.2497	20.7041
2.2438	21.2605
2.238	21.0738
2.2322	21.6941
2.2265	21.8885
2.2208	21.4492
2.2151	21.2353
2.2094	21.2219
2.2038	20.9541
2.1982	21.3451
2.1926	20.9773
2.187	22.2562
2.1815	22.4517
2.176	22.5569
2.1706	23.2561
2.1651	23.474
2.1597	24.0349
2.1543	23.9301
2.149	23.5588
2.1436	23.6856
2.1383	23.7417
2.1331	24.2295
2.1278	23.3116
2.1226	24.1873
2.1174	24.8712
2.1122	24.6092
2.1071	24.265
2.1019	23.9192
2.0968	23.0848
2.0918	23.7062
2.0867	24.8225
2.0817	25.3335
2.0767	24.5117
2.0717	24.7013
2.0667	24.6606
2.0618	25.6109
2.0569	24.4682
2.052	24.8688
2.0472	23.9413
2.0423	24.6764
2.0375	24.5564
2.0327	23.9628
2.028	23.4494
2.0232	25.2568
2.0185	23.7767
2.0138	24.4704
2.0091	24.4366
2.0044	24.9595
1.9998	24.2018
