Name: Wollastonite CaSiO_3
Type: Mineral
Class: Silicates
Subclass: Inosilicates
Particle Size: 0-45um
Sample No.: IN-2A
Owner: JPL
Wavelength Range: VNIR-SWIR
Origin: USA, California, Inyo County, Panamint Mountains
Measurement: Hemispherical reflectance
X Units: Wavelength (micrometers)
Y Units: Reflectance (percent)
wavelength	value
0.4	78.6
0.403	78.91
0.406	79.11
0.409	79.37
0.412	79.39
0.415	79.54
0.418	79.79
0.421	79.76
0.424	79.92
0.427	80.13
0.43	79.94
0.433	80.27
0.436	80.36
0.439	80.24
0.442	80.64
0.445	80.78
0.448	80.57
0.451	80.69
0.454	80.93
0.457	80.89
0.46	81.23
0.463	81.09
0.466	81.23
0.469	81.22
0.472	81.48
0.475	81.58
0.478	81.5
0.481	81.78
0.484	81.78
0.487	81.71
0.49	81.91
0.493	81.9
0.496	81.9
0.499	82.17
0.502	82.26
0.505	82.13
0.508	82.36
0.511	82.51
0.514	82.45
0.517	82.6
0.52	82.73
0.523	82.74
0.526	82.76
0.529	82.73
0.532	82.71
0.535	82.83
0.538	82.98
0.541	83.06
0.544	82.98
0.547	83.27
0.55	83.22
0.553	83.26
0.556	83.21
0.559	83.44
0.562	83.85
0.565	83.84
0.568	83.66
0.571	83.59
0.574	83.48
0.577	83.39
0.58	83.28
0.583	83.41
0.586	83.42
0.589	83.3
0.592	83.43
0.595	83.64
0.598	83.36
0.601	83.59
0.604	83.65
0.607	83.41
0.61	83.48
0.613	83.59
0.616	83.72
0.619	83.29
0.622	83.46
0.625	83.53
0.628	83.39
0.631	83.42
0.634	83.45
0.637	83.48
0.64	83.44
0.643	83.52
0.646	83.36
0.649	83.38
0.652	83.5
0.655	83.52
0.658	83.32
0.661	83.42
0.664	83.54
0.667	83.41
0.67	83.53
0.673	83.53
0.676	83.54
0.679	83.5
0.682	83.66
0.685	83.43
0.688	83.56
0.691	83.72
0.694	83.61
0.697	83.8
0.7	83.6
0.703	83.37
0.706	83.48
0.709	83.64
0.712	83.59
0.715	83.57
0.718	83.76
0.721	83.59
0.724	83.55
0.727	83.79
0.73	83.48
0.733	83.66
0.736	83.71
0.739	83.66
0.742	83.61
0.745	83.66
0.748	83.58
0.751	83.56
0.754	83.67
0.757	83.48
0.76	83.55
0.763	83.64
0.766	83.6
0.769	83.52
0.772	83.6
0.775	83.65
0.778	83.53
0.781	83.66
0.784	83.5
0.787	83.36
0.79	83.37
0.793	83.61
0.796	83.33
0.799	83.48
0.808	83.46
0.82	83.48
0.832	83.32
0.844	83.16
0.856	83.1
0.868	82.94
0.88	82.75
0.892	82.57
0.904	82.34
0.916	82.23
0.928	82.15
0.94	82.12
0.952	82.09
0.964	82.03
0.976	82.03
0.988	82.1
1	82.07
1.012	82.09
1.024	82.13
1.036	81.95
1.048	81.9
1.06	82.01
1.072	82.01
1.084	82.01
1.096	81.92
1.108	81.92
1.12	82
1.132	81.99
1.144	81.99
1.156	81.98
1.168	82.03
1.18	81.93
1.192	82.05
1.204	82.22
1.216	82.2
1.228	82.31
1.24	82.38
1.252	82.4
1.264	82.58
1.276	82.71
1.288	82.9
1.3	82.82
1.312	82.76
1.324	82.89
1.336	82.87
1.348	83.05
1.36	83.08
1.372	82.89
1.384	82.92
1.396	82.96
1.408	82.89
1.42	82.89
1.432	82.86
1.444	82.9
1.456	82.95
1.468	82.83
1.48	82.95
1.492	83.17
1.504	83.07
1.516	83.21
1.528	83.24
1.54	83.24
1.552	83.2
1.564	83.13
1.576	83.17
1.588	83.27
1.6	83.23
1.612	83.24
1.624	83.19
1.636	83.34
1.648	83.4
1.66	83.36
1.672	83.41
1.684	83.36
1.696	83.28
1.708	83.47
1.72	83.48
1.732	83.45
1.744	83.37
1.756	83.19
1.768	83.21
1.78	83.23
1.792	83.22
1.804	83.39
1.816	83.33
1.828	83.3
1.84	83.2
1.852	83.13
1.864	82.99
1.876	82.91
1.888	82.5
1.9	81.96
1.912	81.65
1.924	81.64
1.936	81.81
1.948	82.07
1.96	82.16
1.972	82.33
1.984	82.44
1.996	82.73
2.008	82.79
2.02	83.06
2.032	83.12
2.044	83.19
2.056	83.25
2.068	83.28
2.08	83.37
2.092	83.45
2.104	83.65
2.116	83.81
2.128	83.84
2.14	83.67
2.152	83.5
2.164	83.42
2.176	83.3
2.188	83.06
2.2	82.89
2.212	82.81
2.224	82.73
2.236	82.78
2.248	82.76
2.26	82.64
2.272	82.64
2.284	82.8
2.296	82.63
2.308	82.5
2.32	82.1
2.332	81.7
2.344	81.47
2.356	81.31
2.368	81.41
2.38	81.64
2.392	81.68
2.404	81.88
2.416	82.11
2.428	82.12
2.44	82.03
2.452	81.93
2.464	81.58
2.476	81.46
2.488	81.66
2.5	81.79
