Name: Tincalconite Na_2B_4O_5(OH)_4.3H_2O
Type: Mineral
Class: Borates
Particle Size: 45-125um
Sample No.: B-4A
Owner: JPL
Wavelength Range: VNIR-SWIR
Origin: USA, California, Kern County, Boron
Measurement: Hemispherical reflectance
X Units: Wavelength (micrometers)
Y Units: Reflectance (percent)
wavelength	value
0.4	89.15
0.403	89.33
0.406	89.86
0.409	90.14
0.412	90.26
0.415	90.49
0.418	90.55
0.421	91.32
0.424	90.85
0.427	91.2
0.43	91.08
0.433	91.26
0.436	91.49
0.439	91.43
0.442	91.66
0.445	91.6
0.448	92.19
0.451	92.19
0.454	92.25
0.457	92.72
0.46	92.62
0.463	92.63
0.466	92.39
0.469	92.86
0.472	92.8
0.475	93.05
0.478	93.06
0.481	92.76
0.484	93.54
0.487	93.6
0.49	93.37
0.493	93.56
0.496	93.67
0.499	94.03
0.502	93.73
0.505	94.08
0.508	94.14
0.511	94.08
0.514	94.32
0.517	93.91
0.52	94.5
0.523	93.91
0.526	94.61
0.529	94.61
0.532	94.67
0.535	94.73
0.538	94.79
0.541	94.85
0.544	94.55
0.547	94.85
0.55	94.79
0.553	94.73
0.556	94.91
0.559	94.79
0.562	95.14
0.565	95.26
0.568	95.26
0.571	95.2
0.574	95.48
0.577	95.26
0.58	95.42
0.583	95.14
0.586	95.14
0.589	95.2
0.592	95.08
0.595	95.14
0.598	95.08
0.601	95.72
0.604	95.78
0.607	95.54
0.61	96.01
0.613	96.01
0.616	96.19
0.619	96.19
0.622	95.78
0.625	96.01
0.628	96.01
0.631	95.95
0.634	96.25
0.637	96.07
0.64	96.3
0.643	96.25
0.646	96.3
0.649	96.72
0.652	96.36
0.655	96.3
0.658	96.36
0.661	96.36
0.664	96.54
0.667	96.25
0.67	96.36
0.673	96.36
0.676	96.13
0.679	96.66
0.682	96.25
0.685	96.48
0.688	96.54
0.691	96.42
0.694	96.72
0.697	96.48
0.7	96.25
0.703	96.54
0.706	96.48
0.709	96.36
0.712	96.48
0.715	96.42
0.718	96.36
0.721	96.19
0.724	96.48
0.727	96.42
0.73	96.36
0.733	96.19
0.736	96.36
0.739	96.25
0.742	95.89
0.745	96.19
0.748	95.66
0.751	95.84
0.754	95.89
0.757	96.07
0.76	96.19
0.763	95.54
0.766	96.19
0.769	96.19
0.772	95.66
0.775	96.25
0.778	95.84
0.781	96.42
0.784	96.01
0.787	96.13
0.79	96.19
0.793	95.84
0.796	96.13
0.799	95.37
0.808	95.26
0.82	95.14
0.832	95.14
0.844	95.02
0.856	95.02
0.868	95.02
0.88	94.96
0.892	94.96
0.904	94.96
0.916	94.85
0.928	94.67
0.94	94.32
0.952	94.03
0.964	93.21
0.976	92.57
0.988	92.8
1	92.86
1.012	93.16
1.024	93.33
1.036	93.62
1.048	93.91
1.06	94.08
1.072	94.14
1.084	93.97
1.096	93.73
1.108	93.39
1.12	93.21
1.132	92.86
1.144	91.87
1.156	89.18
1.168	88.8
1.18	88.78
1.192	88.65
1.204	88.68
1.216	88.58
1.228	88.4
1.24	88.17
1.252	87.93
1.264	87.78
1.276	87.72
1.288	87.45
1.3	87.9
1.312	87.76
1.324	86.92
1.336	85.51
1.348	84.04
1.36	82.52
1.372	81.18
1.384	79.44
1.396	76.07
1.408	70.61
1.42	63.47
1.432	62.2
1.444	62.16
1.456	60.48
1.468	58.68
1.48	58.03
1.492	59.2
1.504	61.3
1.516	62.05
1.528	61.82
1.54	60.89
1.552	60.02
1.564	60.08
1.576	60.24
1.588	60.42
1.6	60.14
1.612	59.66
1.624	59.05
1.636	58.46
1.648	57.75
1.66	56.98
1.672	56.38
1.684	55.84
1.696	55.54
1.708	55.3
1.72	55.3
1.732	55.36
1.744	55.19
1.756	54.84
1.768	54.2
1.78	53.33
1.792	52.69
1.804	52.21
1.816	51.58
1.828	51.07
1.84	50.49
1.852	49.75
1.864	48.47
1.876	45.8
1.888	41.39
1.9	34.97
1.912	29.82
1.924	28.02
1.936	28.07
1.948	29.33
1.96	30.81
1.972	31.71
1.984	32.39
1.996	32.99
2.008	33.67
2.02	34.32
2.032	34.82
2.044	35.27
2.056	35.77
2.068	36.19
2.08	36.32
2.092	36.44
2.104	36.68
2.116	36.8
2.128	36.44
2.14	35.52
2.152	34.84
2.164	35.45
2.176	36.55
2.188	37.23
2.2	37.26
2.212	36.81
2.224	36.38
2.236	36.08
2.248	35.89
2.26	35.73
2.272	35.78
2.284	35.74
2.296	35.79
2.308	35.91
2.32	35.86
2.332	35.71
2.344	35.41
2.356	34.86
2.368	33.86
2.38	32.49
2.392	30.76
2.404	29.18
2.416	27.59
2.428	26.18
2.44	25.38
2.452	24.58
2.464	23.73
2.476	22.6
2.488	21.35
2.5	19.94
