Name: Natrojarosite NaFe_3^3+(SO_4)_2(OH)_6
Type: Mineral
Class: Sulfates
Particle Size: 45-125um
Sample No.: SO-7C
Owner: JPL
Origin: USA, Utah, Tooele County, Gold Hill.
Measurement: Hemispherical reflectance
X Units: Wavelength (micrometers)
Y Units: Reflectance (percent)
wavelength	value
2.5	41.0722
2.494	42.3595
2.488	43.5371
2.482	43.8303
2.476	43.8727
2.47	43.5325
2.464	43.2911
2.458	43.4496
2.452	44.2056
2.446	45.3258
2.44	46.4013
2.434	47.05
2.428	47.4884
2.422	47.4567
2.416	47.5801
2.41	47.9321
2.404	48.651
2.398	49.8873
2.392	51.4522
2.386	53.2322
2.38	55.0678
2.374	56.3906
2.368	57.8243
2.362	58.8464
2.356	59.8254
2.35	60.416
2.344	60.8853
2.338	61.0932
2.332	61.0385
2.326	60.611
2.32	59.7552
2.314	58.5166
2.308	56.9829
2.302	55.6945
2.296	54.6764
2.29	53.2746
2.284	51.2556
2.278	48.9653
2.272	47.2564
2.266	46.618
2.26	47.3974
2.254	49.4901
2.248	51.7275
2.242	53.3653
2.236	54.1773
2.23	54.7348
2.224	55.1548
2.218	56.1056
2.212	57.1197
2.206	57.9522
2.2	59.0419
2.194	59.8861
2.188	60.6397
2.182	61.3972
2.176	62.0048
2.17	62.5861
2.164	62.986
2.158	63.3427
2.152	63.7763
2.146	64.227
2.14	64.5367
2.134	64.762
2.128	65.0447
2.122	65.0922
2.116	65.2491
2.11	65.2531
2.104	65.3072
2.098	65.4485
2.092	65.6956
2.086	65.9868
2.08	66.2193
2.074	66.4261
2.068	66.7629
2.062	67.0434
2.056	67.3496
2.05	67.6487
2.044	67.9344
2.038	68.2194
2.032	68.6567
2.026	68.9549
2.02	69.0362
2.014	69.1647
2.008	69.2921
2.002	69.3273
1.996	69.4498
1.99	69.7407
1.984	69.7983
1.978	69.9528
1.972	69.927
1.966	70.0338
1.96	70.1394
1.954	70.2479
1.948	70.4868
1.942	70.5078
1.936	70.8218
1.93	71.1203
1.924	71.5149
1.918	72.193
1.912	72.7127
1.906	73.2507
1.9	73.8162
1.894	74.1055
1.888	74.1407
1.882	73.7271
1.876	72.823
1.87	70.6161
1.864	68.3004
1.858	67.2977
1.852	66.4718
1.846	65.7721
1.84	67.3818
1.834	70.3683
1.828	72.7076
1.822	73.8975
1.816	74.5157
1.81	75.1693
1.804	75.6231
1.798	76.0722
1.792	76.2926
1.786	76.4599
1.78	76.6107
1.774	76.7418
1.768	76.8629
1.762	77.0453
1.756	77.2256
1.75	77.3713
1.744	77.6
1.738	77.8362
1.732	77.9555
1.726	78.0151
1.72	78.0708
1.714	78.0123
1.708	78.0419
1.702	78.0606
1.696	78.0049
1.69	77.9654
1.684	77.8623
1.678	77.8063
1.672	77.7401
1.666	77.7115
1.66	77.6968
1.654	77.6729
1.648	77.5143
1.642	77.6324
1.636	77.4655
1.63	77.3876
1.624	77.3242
1.618	77.1696
1.612	77.0686
1.606	77.0289
1.6	76.774
1.594	76.6504
1.588	76.3126
1.582	75.9762
1.576	75.6635
1.57	75.2116
1.564	74.951
1.558	74.5122
1.552	74.1375
1.546	73.9462
1.54	73.846
1.534	73.7934
1.528	73.9289
1.522	74.0572
1.516	74.1589
1.51	74.2832
1.504	74.2721
1.498	73.9727
1.492	73.1936
1.486	70.6434
1.48	67.5498
1.474	67.8115
1.468	69.9868
1.462	72.3533
1.456	74.3434
1.45	75.2591
1.444	75.7069
1.438	76.0021
1.432	76.0738
1.426	76.0934
1.42	76.1187
1.414	75.9016
1.408	75.7851
1.402	75.4416
1.396	75.156
1.39	74.8807
1.384	74.5099
1.378	74.1275
1.372	73.7585
1.366	73.3136
1.36	72.8405
1.354	72.4246
1.348	72.0106
1.342	71.5012
1.336	70.8943
1.33	70.3437
1.324	69.8911
1.318	69.2779
1.312	68.7029
1.306	68.115
1.3	67.5902
1.294	67.0516
1.288	66.3516
1.282	65.8212
1.276	65.1691
1.27	64.699
1.264	64.0138
1.258	63.4582
1.252	62.8488
1.246	62.2889
1.24	61.6162
1.234	61.0316
1.228	60.3439
1.222	59.7365
1.216	59.153
1.21	58.5063
1.204	57.9097
1.198	57.2644
1.192	56.6208
1.186	55.9786
1.18	55.3095
1.174	54.7991
1.168	54.0819
1.162	53.5446
1.156	52.928
1.15	52.2106
1.144	51.6437
1.138	50.9696
1.132	50.4065
1.126	49.7433
1.12	49.081
1.114	48.5271
1.108	47.9291
1.102	47.2056
1.096	46.5328
1.09	46.0122
1.084	45.368
1.078	44.6914
1.072	44.074
1.066	43.3332
1.06	42.6939
1.054	42.079
1.048	41.4654
1.042	40.7944
1.036	40.2447
1.03	39.5697
1.024	38.9585
1.018	38.4067
1.012	37.848
1.006	37.2912
1	36.87
0.994	36.3648
0.988	35.9353
0.982	35.508
0.976	35.223
0.97	34.8922
0.964	34.5658
0.958	34.3742
0.952	34.1745
0.946	33.926
0.94	33.8081
0.934	33.7494
0.928	33.6137
0.922	33.66
0.916	33.5794
0.91	33.6423
0.904	33.6773
0.898	33.808
0.892	34.0035
0.886	34.1369
0.88	34.3842
0.874	34.6777
0.868	34.9678
0.862	35.3779
0.856	36.0112
0.85	36.5295
0.844	37.0699
0.838	37.6139
0.832	38.263
0.826	39.0005
0.82	39.7762
0.814	40.5752
0.808	41.3943
0.802	42.2829
0.796	43.1658
0.79	44.1031
0.784	45.0429
0.778	45.9221
0.772	46.7401
0.766	47.4774
0.76	48.1196
0.754	48.5944
0.748	48.9703
0.742	49.1166
0.736	49.1254
0.73	48.9824
0.724	48.6401
0.718	48.193
0.712	47.6339
0.706	47.0036
0.7	46.3108
0.694	45.5915
0.688	44.8825
0.682	44.1601
0.676	43.4802
0.67	42.8228
0.664	42.2401
0.658	41.7081
0.652	41.2265
0.646	40.8111
0.64	40.4482
0.634	40.1316
0.628	39.8144
0.622	39.5114
0.616	39.1912
0.61	38.8597
0.604	38.4969
0.598	38.0737
0.592	37.572
0.586	36.8803
0.58	35.9547
0.574	34.8069
0.568	33.3308
0.562	31.6286
0.556	29.6262
0.55	27.5304
0.544	25.4233
0.538	23.361
0.532	21.4662
0.526	19.766
0.52	18.2795
0.514	17.0462
0.508	15.9434
0.502	14.9779
0.496	14.1295
0.49	13.3756
0.484	12.7048
0.478	12.1358
0.472	11.5896
0.466	11.0405
0.46	10.4161
0.454	9.56667
0.448	8.47527
0.442	7.29966
0.436	6.43199
0.43	6.52396
0.424	7.05121
0.418	7.16325
0.412	6.8608
0.406	6.09602
0.4	5.05723
