Name: Brucite Mg(OH)_2
Type: Mineral
Class: Hydroxides
Particle Size: 125-500um
Sample No.: OH-1A
Owner: JPL
Origin: USA, Nevada, Nye County, Gabbs.
Measurement: Hemispherical reflectance
X Units: Wavelength (micrometers)
Y Units: Reflectance (percent)
wavelength	value
2.5	2.79803
2.494	2.42949
2.488	2.42804
2.482	2.32356
2.476	2.25913
2.47	2.31994
2.464	2.63164
2.458	2.6415
2.452	3.16342
2.446	3.14088
2.44	3.58225
2.434	4.02505
2.428	4.84245
2.422	6.06277
2.416	7.99044
2.41	10.4793
2.404	12.813
2.398	14.6036
2.392	15.6385
2.386	16.267
2.38	16.5276
2.374	16.6518
2.368	16.3602
2.362	15.9073
2.356	15.1001
2.35	13.9283
2.344	12.3069
2.338	10.5864
2.332	9.16746
2.326	8.01973
2.32	7.64673
2.314	7.68001
2.308	8.18586
2.302	8.98295
2.296	9.92707
2.29	10.8202
2.284	11.6592
2.278	12.1674
2.272	12.4668
2.266	12.5595
2.26	12.6884
2.254	12.814
2.248	13.1543
2.242	13.4719
2.236	13.9614
2.23	14.5146
2.224	15.3044
2.218	16.1023
2.212	16.8525
2.206	17.5058
2.2	18.1357
2.194	18.9568
2.188	20.3766
2.182	22.1446
2.176	24.2202
2.17	25.946
2.164	27.3082
2.158	27.9486
2.152	28.1809
2.146	27.9314
2.14	27.5193
2.134	27.1621
2.128	26.8984
2.122	26.8843
2.116	26.9996
2.11	27.1632
2.104	27.3492
2.098	27.5114
2.092	27.7286
2.086	27.8656
2.08	27.9313
2.074	27.9742
2.068	28.1846
2.062	28.4615
2.056	28.7434
2.05	29.3453
2.044	29.8556
2.038	30.4672
2.032	30.8762
2.026	31.3208
2.02	31.8714
2.014	32.7825
2.008	33.8793
2.002	35.2232
1.996	36.3985
1.99	37.6993
1.984	38.8511
1.978	39.8259
1.972	40.4099
1.966	40.8596
1.96	41.2684
1.954	41.467
1.948	41.7041
1.942	41.8608
1.936	42.0182
1.93	42.2234
1.924	42.5008
1.918	43.042
1.912	43.8167
1.906	44.8968
1.9	46.1755
1.894	47.2059
1.888	48.0405
1.882	48.7038
1.876	49.6136
1.87	50.5438
1.864	51.37
1.858	52.3707
1.852	53.2222
1.846	54.0962
1.84	54.9147
1.834	55.7443
1.828	56.5313
1.822	57.1964
1.816	58.1972
1.81	59.0177
1.804	59.8575
1.798	60.5574
1.792	61.0241
1.786	61.5347
1.78	62.0016
1.774	62.4111
1.768	63.0668
1.762	63.5541
1.756	64.0233
1.75	64.6115
1.744	65.1608
1.738	65.7613
1.732	66.3002
1.726	66.9154
1.72	67.4289
1.714	67.947
1.708	68.5014
1.702	69.1643
1.696	69.7453
1.69	70.279
1.684	70.8861
1.678	71.4369
1.672	71.9553
1.666	72.373
1.66	72.9183
1.654	73.3419
1.648	73.6558
1.642	74.0763
1.636	74.5461
1.63	74.9866
1.624	75.3014
1.618	75.7711
1.612	76.0745
1.606	76.54
1.6	76.7963
1.594	77.0634
1.588	77.2918
1.582	77.5638
1.576	77.682
1.57	77.8361
1.564	78.047
1.558	78.1096
1.552	78.2249
1.546	78.2743
1.54	78.1827
1.534	78.219
1.528	78.4042
1.522	78.5269
1.516	78.5266
1.51	78.3149
1.504	78.071
1.498	77.3811
1.492	76.1084
1.486	75.7844
1.48	75.2094
1.474	75.4653
1.468	75.6814
1.462	75.2521
1.456	74.005
1.45	73.3301
1.444	71.0425
1.438	68.4872
1.432	68.9996
1.426	67.6186
1.42	63.1223
1.414	59.9569
1.408	48.1882
1.402	23.8967
1.396	17.0501
1.39	41.5814
1.384	48.2889
1.378	53.9403
1.372	62.358
1.366	49.5757
1.36	49.767
1.354	69.8599
1.348	69.4517
1.342	68.3439
1.336	70.3293
1.33	71.4504
1.324	71.0373
1.318	70.8835
1.312	72.1337
1.306	70.4886
1.3	66.7618
1.294	70.0654
1.288	73.4122
1.282	75.4927
1.276	76.9702
1.27	77.4769
1.264	77.4389
1.258	76.5294
1.252	76.1659
1.246	76.1191
1.24	75.6638
1.234	76.4681
1.228	77.1622
1.222	77.3041
1.216	77.2358
1.21	77.4168
1.204	77.4809
1.198	77.1863
1.192	76.9588
1.186	76.799
1.18	76.6246
1.174	76.414
1.168	76.1723
1.162	75.9527
1.156	75.8921
1.15	75.8512
1.144	75.602
1.138	75.339
1.132	75.0731
1.126	74.6754
1.12	74.4176
1.114	74.2183
1.108	73.8626
1.102	73.619
1.096	73.318
1.09	73.1554
1.084	72.9324
1.078	72.7068
1.072	72.4328
1.066	72.409
1.06	72.322
1.054	72.0945
1.048	71.8116
1.042	71.9841
1.036	71.8016
1.03	71.8677
1.024	71.8003
1.018	71.8522
1.012	71.8778
1.006	71.9108
1	71.8058
0.994	71.841
0.988	71.8819
0.982	71.8992
0.976	71.7921
0.97	71.4098
0.964	69.7647
0.958	59.5869
0.952	60.5401
0.946	68.4107
0.94	70.7513
0.934	71.2969
0.928	70.8245
0.922	70.4037
0.916	71.2512
0.91	71.3857
0.904	71.4305
0.898	71.2137
0.892	71.2596
0.886	71.4143
0.88	71.4915
0.874	71.5575
0.868	71.6954
0.862	71.8713
0.856	72.3324
0.85	72.6649
0.844	73.0879
0.838	73.5264
0.832	74.0091
0.826	74.5026
0.82	74.9994
0.814	75.5761
0.808	76.1365
0.802	76.8011
0.796	77.3256
0.79	77.9909
0.784	78.6217
0.778	79.2139
0.772	79.7915
0.766	80.3677
0.76	80.9341
0.754	81.4869
0.748	81.9807
0.742	82.248
0.736	81.1663
0.73	81.8949
0.724	83.3486
0.718	83.8117
0.712	83.9904
0.706	84.1004
0.7	84.2225
0.694	84.2149
0.688	84.1402
0.682	84.0776
0.676	83.9178
0.67	83.7851
0.664	83.634
0.658	83.4523
0.652	83.2645
0.646	83.0544
0.64	82.7911
0.634	82.5369
0.628	82.2321
0.622	81.8789
0.616	81.5052
0.61	81.0717
0.604	80.5288
0.598	80.0684
0.592	79.6503
0.586	79.087
0.58	78.4806
0.574	77.8424
0.568	77.19
0.562	76.5178
0.556	75.8219
0.55	75.2385
0.544	74.7597
0.538	74.1243
0.532	73.4643
0.526	72.7703
0.52	71.9547
0.514	71.306
0.508	71.1294
0.502	70.724
0.496	70.1251
0.49	69.432
0.484	68.4985
0.478	67.4461
0.472	66.4267
0.466	65.2065
0.46	63.3232
0.454	60.7082
0.448	57.549
0.442	54.4892
0.436	51.7421
0.43	49.1438
0.424	46.9656
0.418	44.6988
0.412	41.8215
0.406	38.5463
0.4	35.1772
