Name: Vermiculite (Mg,Fe^2+,Al)_3(Al,Si)_4O_10(OH)_2.4H_2O
Type: Mineral
Class: Silicates
Subclass: Phyllosilicates
Particle Size: 125-500um
Sample No.: PS-18A
Owner: JPL
Wavelength Range: VNIR-SWIR
Origin: USA, Texas, Llano County, Llano
Measurement: Hemispherical reflectance
X Units: Wavelength (micrometers)
Y Units: Reflectance (percent)
wavelength	value
0.4	49.16
0.403	49.67
0.406	50.13
0.409	50.81
0.412	51.04
0.415	51.62
0.418	51.84
0.421	52.41
0.424	52.76
0.427	53.26
0.43	53.66
0.433	53.95
0.436	54.8
0.439	54.8
0.442	55.49
0.445	55.78
0.448	56.34
0.451	56.75
0.454	56.86
0.457	57.44
0.46	57.5
0.463	57.73
0.466	58.42
0.469	58.48
0.472	59.11
0.475	59.17
0.478	59.58
0.481	59.97
0.484	60.21
0.487	60.73
0.49	60.79
0.493	61.48
0.496	61.59
0.499	62.22
0.502	62.28
0.505	62.85
0.508	63.2
0.511	63.49
0.514	63.99
0.517	64.17
0.52	64.63
0.523	64.74
0.526	65.2
0.529	65.53
0.532	65.48
0.535	65.99
0.538	66.05
0.541	66.51
0.544	66.63
0.547	66.8
0.55	67.36
0.553	67.42
0.556	67.71
0.559	67.82
0.562	68.17
0.565	68.45
0.568	68.28
0.571	68.85
0.574	68.4
0.577	68.74
0.58	68.85
0.583	68.85
0.586	69.19
0.589	69.13
0.592	69.53
0.595	69.48
0.598	69.71
0.601	70.05
0.604	69.71
0.607	70.22
0.61	70.17
0.613	70.22
0.616	70.56
0.619	70.34
0.622	70.62
0.625	70.62
0.628	70.79
0.631	70.96
0.634	70.9
0.637	71.13
0.64	71.13
0.643	71.48
0.646	71.31
0.649	71.42
0.652	71.82
0.655	71.59
0.658	71.94
0.661	71.82
0.664	72.05
0.667	72.16
0.67	72.05
0.673	72.56
0.676	72.27
0.679	72.56
0.682	72.62
0.685	72.44
0.688	72.79
0.691	72.56
0.694	72.9
0.697	72.9
0.7	72.79
0.703	72.96
0.706	72.96
0.709	73.31
0.712	73.08
0.715	73.54
0.718	73.36
0.721	73.42
0.724	73.54
0.727	73.42
0.73	73.71
0.733	73.48
0.736	73.76
0.739	73.65
0.742	73.76
0.745	73.98
0.748	73.71
0.751	73.98
0.754	74.04
0.757	73.87
0.76	74.16
0.763	73.76
0.766	74.04
0.769	74.16
0.772	74.1
0.775	74.39
0.778	73.98
0.781	74.39
0.784	73.98
0.787	74.39
0.79	74.27
0.793	74.16
0.796	74.5
0.799	74.73
0.808	74.73
0.82	74.67
0.832	74.56
0.844	74.5
0.856	74.56
0.868	74.27
0.88	74.21
0.892	74.04
0.904	73.71
0.916	73.76
0.928	73.36
0.94	72.67
0.952	72.05
0.964	72.33
0.976	72.5
0.988	72.33
1	72.39
1.012	72.39
1.024	72.39
1.036	72.33
1.048	72.39
1.06	72.62
1.072	72.62
1.084	72.73
1.096	72.85
1.108	73.02
1.12	72.96
1.132	73.08
1.144	72.85
1.156	72.72
1.168	72.53
1.18	72.69
1.192	72.79
1.204	73.06
1.216	73.23
1.228	73.23
1.24	73.34
1.252	73.34
1.264	73.32
1.276	72.85
1.288	73
1.3	73.78
1.312	73.88
1.324	73.86
1.336	73.67
1.348	72.74
1.36	70.81
1.372	69.61
1.384	55.72
1.396	54.47
1.408	59.83
1.42	61.44
1.432	61.39
1.444	61.98
1.456	62.56
1.468	63.07
1.48	63.64
1.492	64.38
1.504	65.23
1.516	65.86
1.528	66.37
1.54	66.94
1.552	67.52
1.564	67.91
1.576	67.97
1.588	68.2
1.6	68.14
1.612	68.07
1.624	68.05
1.636	67.64
1.648	67.39
1.66	67.09
1.672	66.74
1.684	66.61
1.696	66.31
1.708	66.13
1.72	65.84
1.732	65.73
1.744	65.73
1.756	65.5
1.768	65.45
1.78	65.33
1.792	65.16
1.804	64.91
1.816	64.85
1.828	64.62
1.84	64.04
1.852	63.48
1.864	62.1
1.876	59.65
1.888	55.51
1.9	50.29
1.912	46.1
1.924	44.21
1.936	44.32
1.948	44.76
1.96	45.19
1.972	45.66
1.984	46.42
1.996	47.62
2.008	48.6
2.02	49.59
2.032	50.66
2.044	51.48
2.056	52.16
2.068	52.71
2.08	52.7
2.092	52.69
2.104	52.69
2.116	53.01
2.128	53.5
2.14	54.31
2.152	55.34
2.164	55.94
2.176	56.09
2.188	56.03
2.2	55.43
2.212	53.93
2.224	51.84
2.236	48.72
2.248	45.84
2.26	43.55
2.272	41.35
2.284	38.9
2.296	36.31
2.308	34.36
2.32	33.81
2.332	35.29
2.344	38.1
2.356	40.26
2.368	40.44
2.38	39.21
2.392	37.62
2.404	36.46
2.416	35.24
2.428	33.51
2.44	32.02
2.452	30.58
2.464	29.07
2.476	27.8
2.488	26.47
2.5	25.85
