Name: Hornblende Schist
Type: Rock
Class: Metamorphic
Subclass: Schist
Particle Size: Solid surface
Sample No.: Ward86.txt
Owner: JPL
Origin: Ward's Collection of American Rocks.  Sample locality - Mitchell County, North Carolina.  Collected by - JPL.
Description: A medium-grained, schistose, greenish black rock.  The
Measurement: Hemispherical reflectance
X Units: Wavelength (micrometers)
Y Units: Reflectance (percent)
wavelength	value
15.3871	4.22435
15.118	4.41784
14.8581	4.04027
14.6069	4.68315
14.3642	4.47487
14.1293	4.26614
13.9021	3.8134
13.682	3.85068
13.4687	4.70841
13.2621	5.30555
13.0616	4.09731
12.8672	4.44242
12.6784	5.14278
12.4951	5.72897
12.317	5.72529
12.1439	6.66538
11.9757	7.34248
11.812	8.03443
11.6527	8.55151
11.4977	8.87379
11.3468	10.102
11.1997	10.9527
11.0564	11.9133
10.9168	12.5941
10.7806	13.6734
10.6478	16.7695
10.5182	20.1124
10.3917	21.834
10.2683	22.4769
10.1477	22.8229
10.0299	22.148
9.9148	20.4855
9.8024	18.4453
9.6925	17.5939
9.585	18.7301
9.4798	18.9574
9.377	17.2185
9.2763	13.9241
9.1778	11.0994
9.0814	10.007
8.987	8.92796
8.8945	7.71686
8.8039	9.22686
8.7151	10.9943
8.6281	8.88888
8.5428	4.69923
8.4592	3.58373
8.3772	3.37791
8.2967	3.1484
8.2179	3.06852
8.1404	2.78799
8.0645	2.21953
7.9899	2.02228
7.9167	1.88742
7.8449	1.68552
7.7743	1.76676
7.705	1.81915
7.6369	1.85676
7.57	1.80376
7.5043	1.947
7.4397	1.94635
7.3762	2.11543
7.3138	2.22663
7.2524	2.1237
7.1921	2.39681
7.1327	2.26381
7.0743	2.64845
7.0169	2.62952
6.9604	2.63462
6.9047	2.63896
6.85	2.82165
6.7962	2.8325
6.7431	2.88804
6.6909	3.03741
6.6395	3.01945
6.5889	3.10046
6.539	3.08447
6.49	3.10945
6.4416	3.20177
6.3939	3.15228
6.347	3.31674
6.3007	3.22462
6.2551	3.32107
6.2101	3.25763
6.1658	3.21932
6.1222	3.23688
6.0791	3.32241
6.0366	3.18073
5.9948	3.35736
5.9535	3.35244
5.9127	3.21916
5.8726	3.31909
5.8329	3.41504
5.7938	3.36057
5.7552	3.48579
5.7172	3.55729
5.6796	3.55735
5.6425	3.60057
5.6059	3.68167
5.5698	3.81495
5.5341	3.88654
5.4989	3.96074
5.4641	3.97938
5.4298	4.08649
5.3959	4.07848
5.3624	4.07448
5.3294	4.14032
5.2967	4.26439
5.2644	4.35453
5.2326	4.38774
5.2011	4.42241
5.17	4.55987
5.1392	4.57951
5.1088	4.47717
5.0788	4.68366
5.0491	4.56948
5.0198	4.70109
4.9908	4.77188
4.9622	4.83103
4.9338	4.79346
4.9058	5.03157
4.8781	5.00909
4.8508	5.17378
4.8237	5.26384
4.7969	5.44121
4.7704	5.49929
4.7443	5.63815
4.7184	5.77203
4.6927	6.11029
4.6674	6.13775
4.6423	6.32343
4.6175	6.49154
4.593	6.6175
4.5687	6.8844
4.5447	7.03654
4.5209	7.10115
4.4974	7.03898
4.4741	7.04209
4.451	7.31159
4.4282	7.35507
4.4057	7.64216
4.3833	7.73946
4.3612	7.88531
4.3393	8.09052
4.3176	7.98502
4.2962	7.75652
4.2749	7.84112
4.2539	8.12547
4.233	7.79306
4.2124	8.24997
4.192	8.70248
4.1717	8.86089
4.1517	8.80234
4.1319	8.92835
4.1122	9.02725
4.0927	9.25374
4.0734	9.06461
4.0543	9.28305
4.0354	9.24842
4.0166	9.46529
3.9981	9.56831
3.9796	9.45442
3.9614	9.78482
3.9433	9.65972
3.9254	9.71507
3.9077	9.83526
3.8901	10.0085
3.8726	10.0301
3.8554	9.93224
3.8382	9.95958
3.8213	10.1829
3.8045	10.2431
3.7878	10.242
3.7713	10.2882
3.7549	10.2377
3.7386	10.2915
3.7225	10.3191
3.7066	10.2053
3.6907	10.4507
3.675	10.4282
3.6595	10.3521
3.644	10.3155
3.6287	10.2205
3.6136	10.1682
3.5985	10.4106
3.5836	10.0654
3.5688	10.0766
3.5541	10.3286
3.5396	10.0669
3.5251	9.92831
3.5108	9.46926
3.4966	9.43886
3.4825	9.31253
3.4685	9.17137
3.4547	9.33873
3.4409	8.96974
3.4273	8.83528
3.4137	8.45377
3.4003	8.55043
3.387	8.30566
3.3738	8.36724
3.3606	8.61779
3.3476	8.70987
3.3347	8.6238
3.3219	8.7185
3.3092	8.50775
3.2965	8.70371
3.284	8.38621
3.2716	8.22147
3.2593	8.47607
3.247	8.26855
3.2348	7.73225
3.2228	7.88493
3.2108	7.72147
3.1989	7.88597
3.1871	7.5315
3.1754	7.7062
3.1638	7.6488
3.1523	7.48634
3.1408	7.24508
3.1294	6.96114
3.1181	7.02343
3.1069	6.9014
3.0958	7.14741
3.0848	7.13453
3.0738	7.16879
3.0629	7.04106
3.0521	7.15506
3.0413	6.76042
3.0307	7.11094
3.0201	7.03747
3.0096	6.63088
2.9991	6.83297
2.9887	6.13358
2.9784	6.73443
2.9682	6.61717
2.9581	6.58935
2.948	6.40186
2.9379	6.38344
2.928	6.77283
2.9181	6.83145
2.9083	6.68393
2.8985	6.77688
2.8888	6.55721
2.8792	6.75108
2.8697	6.72675
2.8602	7.10898
2.8507	6.94764
2.8413	6.56431
2.832	6.83148
2.8228	6.60049
2.8136	6.93095
2.8045	5.84474
2.7954	6.33014
2.7864	6.87468
2.7774	6.4081
2.7685	4.82844
2.7597	5.3484
2.7509	5.56744
2.7422	5.26724
2.7335	6.14004
2.7249	5.91871
2.7163	6.04844
2.7078	6.48984
2.6994	7.20527
2.691	8.00146
2.6826	10.2363
2.6743	11.9323
2.666	12.6041
2.6578	12.3259
2.6497	12.0104
2.6416	12.5491
2.6336	12.7396
2.6256	12.6814
2.6176	12.382
2.6097	12.3095
2.6018	12.5016
2.594	12.8862
2.5863	12.8628
2.5785	12.6423
2.5709	12.3974
2.5633	13.2043
2.5557	12.4328
2.5481	13.3216
2.5406	12.1932
2.5332	12.7055
2.5258	12.4827
2.5184	12.3691
2.5111	12.7993
2.5038	12.3122
2.4966	12.3218
2.4894	12.8648
2.4823	11.9994
2.4752	12.8085
2.4681	12.7491
2.4611	12.5492
2.4541	12.8294
2.4471	12.2795
2.4402	12.6821
2.4333	12.7898
2.4265	12.0006
2.4197	12.2734
2.413	11.8857
2.4063	11.9084
2.3996	10.8918
2.3929	10.9731
2.3863	11.4007
2.3798	11.3538
2.3732	11.5953
2.3667	11.7016
2.3603	11.0209
2.3538	10.5919
2.3474	11.0359
2.3411	9.93114
2.3347	10.289
2.3285	9.59611
2.3222	9.10565
2.316	10.2879
2.3098	9.79194
2.3036	10.4195
2.2975	10.6782
2.2914	11.0253
2.2854	12.2744
2.2793	13.2798
2.2733	13.1512
2.2674	13.9372
2.2614	14.4559
2.2555	13.4857
2.2497	13.6197
2.2438	14.6145
2.238	15.2304
2.2322	16.6295
2.2265	15.4207
2.2208	16.4222
2.2151	16.63
2.2094	15.4878
2.2038	16.4016
2.1982	16.7891
2.1926	17.1588
2.187	16.2419
2.1815	16.5377
2.176	17.0983
2.1706	17.2198
2.1651	17.5081
2.1597	17.8942
2.1543	17.1156
2.149	17.4203
2.1436	16.6368
2.1383	17.4485
2.1331	16.0429
2.1278	17.426
2.1226	17.3018
2.1174	16.3602
2.1122	16.9336
2.1071	17.7279
2.1019	18.5181
2.0968	17.645
2.0918	17.8694
2.0867	17.4096
2.0817	18.133
2.0767	18.7453
2.0717	18.1197
2.0667	19.6296
2.0618	19.2169
2.0569	20.3282
2.052	18.4898
2.0472	18.4474
2.0423	19.8039
2.0375	19.9223
2.0327	20.6432
2.028	18.4449
2.0232	22.0592
2.0185	17.1063
2.0138	18.0131
2.0091	20.8855
2.0044	20.2029
1.9998	19.6979
