Name: Black Nextel Paint
Type: Manmade materials
Class: General Construction Materials
Subclass: Paints
Particle Size: Solid
Sample No.: 3101-c10
Owner: JPL
Origin: Red Spot Paint & Varnish Co., 1111 Louisiana St.,
Description: Black Nextel Suede Urethane paint.
Measurement: Hemispherical reflectance
X Units: Wavelength (micrometers)
Y Units: Reflectance (percent)
wavelength	value
15.3853	2.17959
15.1161	2.50864
14.8563	2.3609
14.6052	2.50523
14.3624	2.77726
14.1276	2.58832
13.9004	2.85377
13.6803	2.59252
13.4671	2.50024
13.2604	2.63174
13.06	2.4203
12.8656	2.7049
12.6769	2.84338
12.4936	2.62221
12.3155	2.63961
12.1425	2.75314
11.9742	2.64634
11.8106	2.75237
11.6513	2.82055
11.4963	2.76007
11.3454	2.79521
11.1983	2.87779
11.0551	2.99339
10.9154	2.94263
10.7793	2.79987
10.6465	3.03828
10.5169	2.94463
10.3904	2.98829
10.267	2.9912
10.1464	3.17293
10.0287	3.19909
9.91364	3.21346
9.80119	3.50295
9.69128	3.50517
9.5838	3.52271
9.47867	3.34481
9.37583	3.30342
9.27519	3.07986
9.17669	3.04835
9.08027	3.17255
8.98585	3.32326
8.89337	3.55879
8.80277	3.23829
8.714	3.07533
8.62701	3.2725
8.54174	3.2877
8.45813	2.96788
8.37614	2.76149
8.29573	2.81009
8.21685	2.96678
8.13946	2.45034
8.0635	2.23208
7.98896	2.11044
7.91578	2.08699
7.84392	2.05879
7.77337	2.02634
7.70406	2.0992
7.63598	2.09454
7.5691	2.2152
7.50338	2.35316
7.43879	2.39971
7.37529	2.38732
7.31288	2.54704
7.25152	2.5787
7.19117	2.42444
7.13182	2.52635
7.07344	2.54989
7.01601	2.52985
6.95951	2.63138
6.90391	2.63409
6.84918	2.41389
6.79532	2.50688
6.74231	2.64732
6.69011	2.7406
6.63871	2.75142
6.5881	2.77796
6.53825	2.78604
6.48915	2.50554
6.44079	2.279
6.39314	2.41783
6.34618	2.70526
6.29992	2.79694
6.25432	2.62756
6.20938	2.72384
6.16508	2.85677
6.12141	2.95666
6.07835	2.88652
6.0359	3.10641
5.99403	3.15938
5.95274	3.21465
5.91201	3.17493
5.87184	3.31256
5.83221	3.61209
5.79311	3.8628
5.75453	2.92606
5.71646	1.378
5.6789	1.78109
5.64182	2.30517
5.60522	2.63363
5.5691	2.97502
5.53344	3.07149
5.49823	3.20869
5.46347	3.3191
5.42914	3.43453
5.39525	3.50156
5.36177	3.54153
5.32871	3.52422
5.29605	3.57407
5.26379	3.56603
5.23192	3.58874
5.20044	3.55212
5.16933	3.63166
5.13859	3.62668
5.10821	3.68968
5.07819	3.63584
5.04852	3.65834
5.0192	3.73014
4.99021	3.64737
4.96156	3.73552
4.93324	3.65836
4.90524	3.75216
4.87755	3.67099
4.85017	3.71449
4.8231	3.69504
4.79633	3.86362
4.76986	3.82257
4.74367	3.76117
4.71777	3.84734
4.69216	3.79327
4.66682	3.87754
4.64175	3.76999
4.61695	3.77436
4.59241	3.95719
4.56814	3.88891
4.54411	3.82009
4.52034	3.86163
4.49682	3.91848
4.47354	3.77815
4.4505	3.79926
4.4277	3.8361
4.40513	3.80052
4.38278	3.95329
4.36067	3.74646
4.33877	3.89966
4.3171	3.858
4.29564	3.9317
4.27439	3.82221
4.25335	3.84701
4.23252	3.95325
4.21189	3.89825
4.19146	3.86204
4.17123	3.88694
4.15119	3.89463
4.13134	3.90134
4.11168	4.01278
4.09221	3.80464
4.07292	3.8676
4.05382	3.90898
4.03489	3.91568
4.01614	3.85955
3.99756	4.00682
3.97915	3.74645
3.96091	3.89427
3.94284	3.88089
3.92493	3.96552
3.90718	3.8824
3.8896	3.70676
3.87217	3.94122
3.8549	3.85089
3.83777	3.83679
3.82081	3.84513
3.80399	3.91805
3.78731	3.91263
3.77079	3.97761
3.7544	3.93089
3.73816	3.87241
3.72206	3.9335
3.7061	3.79
3.69027	3.82635
3.67458	3.95708
3.65902	3.72785
3.64359	3.79376
3.6283	3.85665
3.61312	3.73926
3.59808	3.80415
3.58316	3.92322
3.56836	3.71195
3.55369	3.73273
3.53914	3.63484
3.5247	3.80835
3.51038	3.74089
3.49618	3.50156
3.48209	3.2999
3.46812	3.26162
3.45425	3.34615
3.4405	3.40062
3.42686	3.1953
3.41332	3.11463
3.39989	3.06058
3.38657	3.01963
3.37335	2.90511
3.36023	3.04166
3.34721	3.08063
3.3343	3.46348
3.32148	3.56975
3.30876	3.43377
3.29614	3.54554
3.28362	3.40734
3.27119	3.58776
3.25885	3.58193
3.24661	3.54024
3.23446	3.73516
3.22239	3.65227
3.21042	3.62668
3.19854	3.57996
3.18674	3.72513
3.17504	3.73847
3.16341	3.62547
3.15187	3.75143
3.14042	3.69733
3.12905	3.74487
3.11776	3.62891
3.10655	3.57067
3.09542	3.63065
3.08437	3.43454
3.0734	3.37258
3.06251	3.3982
3.0517	3.40363
3.04096	3.18088
3.03029	3.07198
3.0197	3.2238
3.00919	3.11771
2.99875	3.18342
2.98838	3.21938
2.97808	2.99407
2.96785	3.21547
2.95769	3.48403
2.9476	3.38763
2.93758	3.36139
2.92763	3.5199
2.91775	3.64257
2.90793	3.56876
2.89817	3.47719
2.88849	3.57696
2.87886	3.79196
2.8693	3.71057
2.85981	3.65447
2.85038	3.68166
2.841	3.61646
2.83169	3.77571
2.82245	3.59076
2.81326	3.77632
2.80413	3.66183
2.79506	3.86837
2.78605	4.09907
2.77709	3.75177
2.7682	3.68615
2.75936	3.75808
2.75057	3.70792
2.74185	3.77977
2.73318	3.74649
2.72456	3.81534
2.71599	3.77144
2.70748	3.77324
2.69903	3.73593
2.69062	3.67988
2.68227	3.64197
2.67397	3.92229
2.66572	3.64355
2.65753	3.74709
2.64938	3.8491
2.64128	3.79687
2.63323	3.79
2.62523	3.68362
2.61728	3.81611
2.60938	3.6785
2.60152	3.52213
2.59371	3.79188
2.58595	3.586
2.57824	3.5966
2.57057	3.50599
2.56294	3.63427
2.55536	3.38186
2.54783	3.7675
2.54034	3.7402
2.53289	3.46987
2.52549	3.6298
2.51813	3.71227
2.51082	3.55172
2.50354	3.62436
2.49631	3.7617
2.48912	3.64184
2.48197	3.56733
2.47486	3.62135
2.46779	3.72459
2.46077	3.75327
2.45378	3.66572
2.44683	3.58994
2.43992	3.65142
2.43305	3.68658
2.42622	3.80082
2.41943	3.38429
2.41267	3.52871
2.40595	3.52415
2.39928	3.52715
2.39263	3.41758
2.38603	3.3939
2.37946	3.62169
2.37292	3.60596
2.36642	3.31668
2.35996	3.75414
2.35353	3.68694
2.34714	3.63254
2.34078	3.57023
2.33446	3.61311
2.32817	3.70326
2.32191	3.35723
2.31569	3.55475
2.3095	3.5602
2.30335	3.42062
2.29722	3.55308
2.29113	3.40303
2.28507	3.62812
2.27905	3.56289
2.27305	3.57414
2.26709	3.63164
2.26116	3.40872
2.25526	3.66579
2.24939	3.69073
2.24355	3.66943
2.23774	3.59708
2.23196	3.58914
2.22621	3.713
2.22049	3.5889
2.21479	3.35666
2.20913	3.46516
2.2035	3.61309
2.19789	3.48155
2.19232	3.46941
2.18677	3.51252
2.18125	3.59579
2.17576	3.36906
2.17029	3.75229
2.16486	3.45415
2.15945	3.57215
2.15406	3.70659
2.14871	3.53463
2.14338	3.69859
2.13808	3.6682
2.1328	3.52233
2.12755	3.60373
2.12232	3.24096
2.11712	3.6747
2.11195	3.72624
2.1068	3.33412
2.10168	3.4297
2.09658	3.7241
2.0915	3.40928
2.08645	3.49009
2.08143	3.43147
2.07643	3.39976
2.07145	3.4744
2.06649	3.03895
2.06156	3.87243
2.05666	3.54009
2.05177	2.98611
2.04691	3.39672
2.04208	3.50855
2.03726	3.46715
2.03247	3.45189
2.0277	3.66959
2.02295	3.46521
2.01823	3.46661
2.01353	3.60088
2.00885	3.51071
2.00419	3.30813
