Name: Montmorillonite (Na,Ca)_0.33(Al,Mg)_2Si_4O_10(OH)_2.H_2O
Type: Mineral
Class: Silicates
Subclass: Phyllosilicates
Particle Size: 0-45um
Sample No.: PS-2B
Owner: JPL
Wavelength Range: VNIR-SWIR
Origin: USA, Texas, Gonzales County
Measurement: Hemispherical reflectance
X Units: Wavelength (micrometers)
Y Units: Reflectance (percent)
wavelength	value
0.4	74.45
0.403	75.21
0.406	75.65
0.409	76.08
0.412	76.4
0.415	76.88
0.418	77.34
0.421	77.78
0.424	78.3
0.427	78.66
0.43	79.11
0.433	79.47
0.436	79.83
0.439	80.32
0.442	80.67
0.445	81.03
0.448	81.36
0.451	81.76
0.454	81.87
0.457	82.04
0.46	82.23
0.463	82.28
0.466	82.57
0.469	82.71
0.472	82.79
0.475	83.02
0.478	83.18
0.481	83.26
0.484	83.37
0.487	83.46
0.49	83.66
0.493	83.75
0.496	83.97
0.499	84.24
0.502	84.44
0.505	84.46
0.508	84.68
0.511	85.02
0.514	85.15
0.517	85.44
0.52	85.67
0.523	85.76
0.526	85.96
0.529	86.23
0.532	86.29
0.535	86.49
0.538	86.65
0.541	86.75
0.544	86.9
0.547	87.06
0.55	87.27
0.553	87.59
0.556	87.65
0.559	87.7
0.562	88.21
0.565	88.4
0.568	88.44
0.571	88.5
0.574	88.56
0.577	88.47
0.58	88.61
0.583	88.55
0.586	88.79
0.589	88.96
0.592	88.96
0.595	89.02
0.598	89.04
0.601	89.31
0.604	89.47
0.607	89.61
0.61	89.45
0.613	89.5
0.616	89.57
0.619	89.56
0.622	89.63
0.625	89.74
0.628	89.68
0.631	89.72
0.634	89.73
0.637	89.84
0.64	89.85
0.643	89.95
0.646	90.03
0.649	90.03
0.652	90.15
0.655	90.3
0.658	90.3
0.661	90.2
0.664	90.48
0.667	90.31
0.67	90.47
0.673	90.48
0.676	90.71
0.679	90.71
0.682	90.76
0.685	90.78
0.688	91
0.691	91.06
0.694	91.05
0.697	91.11
0.7	91
0.703	91.24
0.706	91.29
0.709	91.3
0.712	91.29
0.715	91.35
0.718	91.53
0.721	91.53
0.724	91.47
0.727	91.48
0.73	91.53
0.733	91.58
0.736	91.47
0.739	91.58
0.742	91.47
0.745	91.59
0.748	91.59
0.751	91.59
0.754	91.59
0.757	91.7
0.76	91.64
0.763	91.76
0.766	91.76
0.769	91.59
0.772	91.82
0.775	91.53
0.778	91.59
0.781	91.71
0.784	91.59
0.787	91.71
0.79	91.59
0.793	91.59
0.796	91.59
0.799	91.51
0.808	91.62
0.82	91.44
0.832	91.38
0.844	91.32
0.856	91.26
0.868	91.37
0.88	91.25
0.892	91.19
0.904	91.13
0.916	91.01
0.928	90.9
0.94	90.59
0.952	89.94
0.964	89.7
0.976	90.35
0.988	90.65
1	90.86
1.012	91.14
1.024	91.19
1.036	91.43
1.048	91.49
1.06	91.43
1.072	91.58
1.084	91.5
1.096	91.51
1.108	91.57
1.12	91.48
1.132	91.05
1.144	89.67
1.156	89.27
1.168	89.91
1.18	90.12
1.192	90.1
1.204	90.39
1.216	90.34
1.228	90.54
1.24	90.39
1.252	90.41
1.264	90.53
1.276	90.33
1.288	89.9
1.3	89.26
1.312	88.53
1.324	87.61
1.336	86.59
1.348	85.66
1.36	84.41
1.372	81.78
1.384	75.77
1.396	67.76
1.408	62.45
1.42	65.61
1.432	69.94
1.444	71.77
1.456	71.94
1.468	73.24
1.48	75.38
1.492	77.04
1.504	78.36
1.516	79.49
1.528	80.32
1.54	81.22
1.552	81.81
1.564	82.37
1.576	82.83
1.588	83.12
1.6	83.59
1.612	83.76
1.624	84
1.636	84.19
1.648	84.35
1.66	84.45
1.672	84.53
1.684	84.47
1.696	84.25
1.708	83.88
1.72	83.38
1.732	82.83
1.744	82.17
1.756	81.45
1.768	80.73
1.78	80.1
1.792	79.76
1.804	79.54
1.816	79.2
1.828	78.79
1.84	77.87
1.852	76.1
1.864	72
1.876	63.48
1.888	51.72
1.9	41.56
1.912	41.5
1.924	46.22
1.936	49.46
1.948	51.25
1.96	52.68
1.972	54.23
1.984	56.32
1.996	58.62
2.008	60.82
2.02	62.9
2.032	64.62
2.044	65.81
2.056	66.71
2.068	67.35
2.08	67.78
2.092	68.16
2.104	68.81
2.116	69.48
2.128	69.9
2.14	69.91
2.152	69.47
2.164	68.33
2.176	65.8
2.188	61.31
2.2	57
2.212	57.08
2.224	60.55
2.236	63.22
2.248	64.44
2.26	64.71
2.272	64.08
2.284	62.92
2.296	61.52
2.308	60.09
2.32	59.01
2.332	57.47
2.344	55.76
2.356	54.1
2.368	52.48
2.38	51
2.392	49.41
2.404	47.96
2.416	46.52
2.428	45.01
2.44	43.63
2.452	42.29
2.464	41.02
2.476	39.99
2.488	38.94
2.5	38.07
