Name: Serpentine (Mg,Fe^2+,Ni)Si_2O_5(OH)_4
Type: Mineral
Class: Silicates
Subclass: Phyllosilicates
Particle Size: 0-45um
Sample No.: PS-20A
Owner: JPL
Origin: USA, New York.
Measurement: Hemispherical reflectance
X Units: Wavelength (micrometers)
Y Units: Reflectance (percent)
wavelength	value
2.5	37.8503
2.494	38.8494
2.488	40.0458
2.482	40.9087
2.476	41.8086
2.47	43.1363
2.464	44.427
2.458	45.2326
2.452	45.3205
2.446	44.9226
2.44	44.027
2.434	43.4243
2.428	43.676
2.422	44.3308
2.416	44.956
2.41	45.2966
2.404	45.3547
2.398	45.5738
2.392	46.1855
2.386	46.8997
2.38	47.574
2.374	48.2011
2.368	49.0945
2.362	49.982
2.356	50.1161
2.35	48.5785
2.344	45.2169
2.338	41.7989
2.332	39.7773
2.326	39.5424
2.32	40.5904
2.314	42.4459
2.308	44.8856
2.302	47.2563
2.296	48.9308
2.29	50.1323
2.284	50.7393
2.278	50.6762
2.272	50.7345
2.266	51.7576
2.26	53.9698
2.254	55.4058
2.248	55.8599
2.242	56.5634
2.236	57.8465
2.23	59.8423
2.224	61.6153
2.218	62.6877
2.212	63.3372
2.206	63.6689
2.2	63.99
2.194	64.1512
2.188	64.3422
2.182	64.4115
2.176	64.565
2.17	64.5572
2.164	64.5609
2.158	64.4185
2.152	63.9476
2.146	63.2987
2.14	62.4247
2.134	61.4064
2.128	61.2149
2.122	61.4166
2.116	61.1909
2.11	60.9851
2.104	61.1417
2.098	61.177
2.092	61.5337
2.086	62.2646
2.08	62.9894
2.074	63.6228
2.068	63.9115
2.062	63.8013
2.056	63.4308
2.05	62.7125
2.044	62.2229
2.038	61.8106
2.032	61.552
2.026	61.4453
2.02	61.3007
2.014	61.0545
2.008	60.684
2.002	60.0197
1.996	59.5116
1.99	59.1791
1.984	58.8244
1.978	58.6986
1.972	58.6979
1.966	58.8001
1.96	58.9071
1.954	58.9185
1.948	58.4706
1.942	58.9799
1.936	58.9224
1.93	58.6698
1.924	58.6446
1.918	58.7385
1.912	59.3721
1.906	60.3422
1.9	61.9457
1.894	63.5177
1.888	64.8503
1.882	65.7814
1.876	66.4962
1.87	67.2445
1.864	67.6311
1.858	67.804
1.852	68.012
1.846	68.2037
1.84	68.334
1.834	68.3735
1.828	68.379
1.822	68.4173
1.816	68.3167
1.81	68.3674
1.804	68.5609
1.798	68.6458
1.792	68.6997
1.786	68.7327
1.78	68.7621
1.774	68.7823
1.768	68.8317
1.762	68.9352
1.756	68.9593
1.75	69.1045
1.744	69.2152
1.738	69.2502
1.732	69.3069
1.726	69.4046
1.72	69.4171
1.714	69.5148
1.708	69.5291
1.702	69.5355
1.696	69.5565
1.69	69.6597
1.684	69.5726
1.678	69.6965
1.672	69.5616
1.666	69.5627
1.66	69.5836
1.654	69.6986
1.648	69.631
1.642	69.5638
1.636	69.68
1.63	69.5668
1.624	69.5599
1.618	69.5795
1.612	69.526
1.606	69.5741
1.6	69.5014
1.594	69.4281
1.588	69.4715
1.582	69.3055
1.576	69.2865
1.57	69.2304
1.564	69.2333
1.558	69.1321
1.552	69.0559
1.546	69.0309
1.54	68.8262
1.534	68.7888
1.528	68.6556
1.522	68.6066
1.516	68.5104
1.51	68.3533
1.504	68.3016
1.498	68.0402
1.492	68.0209
1.486	67.8786
1.48	67.7447
1.474	67.5831
1.468	67.3146
1.462	67.2482
1.456	67.1167
1.45	67.0091
1.444	66.818
1.438	66.6605
1.432	66.4064
1.426	66.1198
1.42	65.8817
1.414	65.3674
1.408	63.5286
1.402	60.7172
1.396	50.8397
1.39	51.761
1.384	51.6018
1.378	63.5414
1.372	66.5118
1.366	66.2779
1.36	64.9803
1.354	65.7853
1.348	67.4153
1.342	67.4793
1.336	67.5046
1.33	67.5404
1.324	67.4167
1.318	67.3568
1.312	67.2708
1.306	67.1243
1.3	67.076
1.294	66.7711
1.288	66.2317
1.282	66.3002
1.276	66.3866
1.27	66.5141
1.264	66.3983
1.258	66.4656
1.252	66.5061
1.246	66.4688
1.24	66.3909
1.234	66.2719
1.228	66.2626
1.222	66.0317
1.216	66.0377
1.21	65.8645
1.204	65.8411
1.198	65.6994
1.192	65.5615
1.186	65.5286
1.18	65.3746
1.174	65.2733
1.168	65.2272
1.162	65.1548
1.156	65.0607
1.15	65.0049
1.144	64.9653
1.138	64.8683
1.132	64.8163
1.126	64.6947
1.12	64.6576
1.114	64.6591
1.108	64.4995
1.102	64.4696
1.096	64.4824
1.09	64.3035
1.084	64.2903
1.078	64.1688
1.072	64.0994
1.066	64.1337
1.06	64.0386
1.054	64.0428
1.048	63.9588
1.042	63.8396
1.036	63.8361
1.03	63.7633
1.024	63.6749
1.018	63.6228
1.012	63.5558
1.006	63.5231
1	63.4471
0.994	63.3666
0.988	63.3578
0.982	63.1986
0.976	63.0996
0.97	63.0566
0.964	62.9664
0.958	62.8434
0.952	62.3486
0.946	62.318
0.94	62.5234
0.934	62.7336
0.928	62.7162
0.922	62.7626
0.916	62.6558
0.91	62.7045
0.904	62.6904
0.898	62.7332
0.892	62.7176
0.886	62.6894
0.88	62.7143
0.874	62.7674
0.868	62.7887
0.862	62.8813
0.856	63.1293
0.85	63.1577
0.844	63.1975
0.838	63.2234
0.832	63.2637
0.826	63.3068
0.82	63.3236
0.814	63.3503
0.808	63.3756
0.802	63.3393
0.796	63.3087
0.79	63.3201
0.784	63.2697
0.778	63.2364
0.772	63.2339
0.766	63.2246
0.76	63.2055
0.754	63.2284
0.748	63.1762
0.742	63.1837
0.736	63.2139
0.73	63.1942
0.724	63.1819
0.718	63.2067
0.712	63.2175
0.706	63.2025
0.7	63.2067
0.694	63.1969
0.688	63.1809
0.682	63.1688
0.676	63.1325
0.67	63.1291
0.664	63.1066
0.658	63.0838
0.652	63.0614
0.646	63.0428
0.64	63.0388
0.634	63.0227
0.628	63.0018
0.622	62.9855
0.616	62.9233
0.61	62.8932
0.604	62.8404
0.598	62.7867
0.592	62.7303
0.586	62.6122
0.58	62.4725
0.574	62.3322
0.568	62.1774
0.562	62.0011
0.556	61.7887
0.55	61.6038
0.544	61.4156
0.538	61.2167
0.532	61.0272
0.526	60.8278
0.52	60.6386
0.514	60.4038
0.508	60.1402
0.502	59.8394
0.496	59.5065
0.49	59.1799
0.484	58.7878
0.478	58.3877
0.472	57.7312
0.466	56.8272
0.46	56.0594
0.454	55.7051
0.448	55.3826
0.442	54.9744
0.436	54.7154
0.43	54.682
0.424	54.7522
0.418	54.7471
0.412	54.7385
0.406	54.8033
0.4	54.7319
