Name: Rutile TiO_2
Type: Mineral
Class: Oxides
Particle Size: 45-125um
Sample No.: O-2A
Owner: JPL
Origin: Unknown.
Measurement: Hemispherical reflectance
X Units: Wavelength (micrometers)
Y Units: Reflectance (percent)
wavelength	value
2.5	34.5061
2.494	34.1804
2.488	34.0965
2.482	34.1516
2.476	34.172
2.47	34.161
2.464	34.1839
2.458	34.0929
2.452	34.0752
2.446	34.2072
2.44	34.1466
2.434	34.2238
2.428	34.1774
2.422	34.1661
2.416	34.2221
2.41	34.0138
2.404	33.9947
2.398	33.8737
2.392	33.811
2.386	33.835
2.38	33.9048
2.374	33.9085
2.368	33.8855
2.362	33.862
2.356	33.9612
2.35	33.8974
2.344	33.8477
2.338	33.7292
2.332	33.6191
2.326	33.3227
2.32	33.157
2.314	32.9291
2.308	32.7091
2.302	32.663
2.296	32.6849
2.29	32.6956
2.284	32.8169
2.278	32.9373
2.272	32.972
2.266	33.1019
2.26	33.0308
2.254	32.9922
2.248	32.8994
2.242	32.9392
2.236	32.9484
2.23	32.9317
2.224	32.9096
2.218	32.9163
2.212	32.8604
2.206	32.9002
2.2	32.879
2.194	32.8387
2.188	32.8758
2.182	32.7615
2.176	32.8639
2.17	32.8553
2.164	32.8287
2.158	32.8406
2.152	32.8472
2.146	32.8525
2.14	32.7345
2.134	32.6769
2.128	32.5809
2.122	32.4201
2.116	32.2738
2.11	32.0585
2.104	31.9869
2.098	31.916
2.092	31.8411
2.086	31.8375
2.08	31.8477
2.074	31.7843
2.068	31.7713
2.062	31.7365
2.056	31.7046
2.05	31.6439
2.044	31.6866
2.038	31.6056
2.032	31.5777
2.026	31.5483
2.02	31.545
2.014	31.5038
2.008	31.3794
2.002	31.3316
1.996	31.1874
1.99	31.1763
1.984	31.1293
1.978	30.9998
1.972	30.9691
1.966	30.9141
1.96	30.9013
1.954	30.8268
1.948	30.7798
1.942	30.7486
1.936	30.7179
1.93	30.6637
1.924	30.5917
1.918	30.5585
1.912	30.4988
1.906	30.4339
1.9	30.3717
1.894	30.4187
1.888	30.3873
1.882	30.2381
1.876	30.3541
1.87	30.1521
1.864	30.1776
1.858	30.1031
1.852	30.0616
1.846	29.988
1.84	29.9325
1.834	29.8671
1.828	29.8581
1.822	29.798
1.816	29.7553
1.81	29.6637
1.804	29.647
1.798	29.5286
1.792	29.5262
1.786	29.4551
1.78	29.316
1.774	29.2789
1.768	29.1819
1.762	29.1839
1.756	29.1479
1.75	29.0499
1.744	28.9713
1.738	28.9617
1.732	28.8581
1.726	28.8625
1.72	28.7424
1.714	28.7052
1.708	28.5862
1.702	28.5952
1.696	28.509
1.69	28.4452
1.684	28.5114
1.678	28.4075
1.672	28.314
1.666	28.3718
1.66	28.2893
1.654	28.2297
1.648	28.1657
1.642	28.2971
1.636	28.1542
1.63	28.0373
1.624	27.9801
1.618	28.0795
1.612	27.9538
1.606	27.9799
1.6	27.9115
1.594	27.8508
1.588	27.8422
1.582	27.7759
1.576	27.735
1.57	27.772
1.564	27.7537
1.558	27.6745
1.552	27.6775
1.546	27.6612
1.54	27.564
1.534	27.578
1.528	27.6177
1.522	27.5826
1.516	27.5602
1.51	27.4916
1.504	27.4719
1.498	27.4584
1.492	27.4691
1.486	27.4542
1.48	27.411
1.474	27.457
1.468	27.3708
1.462	27.4324
1.456	27.3908
1.45	27.3497
1.444	27.2576
1.438	27.315
1.432	27.299
1.426	27.2501
1.42	27.2555
1.414	27.1924
1.408	27.1577
1.402	27.1575
1.396	27.0527
1.39	27.1125
1.384	27.1511
1.378	27.1216
1.372	27.208
1.366	26.9616
1.36	27.0692
1.354	27.1124
1.348	27.1044
1.342	26.9608
1.336	27.0197
1.33	27.0171
1.324	26.9885
1.318	26.894
1.312	26.9483
1.306	26.9232
1.3	26.8851
1.294	26.8972
1.288	26.9085
1.282	26.77
1.276	26.8205
1.27	26.8615
1.264	26.83
1.258	26.8523
1.252	26.9028
1.246	26.9216
1.24	26.9014
1.234	26.8717
1.228	26.8347
1.222	26.984
1.216	26.9396
1.21	26.941
1.204	26.8668
1.198	27.0338
1.192	27.0173
1.186	27.0855
1.18	27.0789
1.174	27.1299
1.168	27.221
1.162	27.2215
1.156	27.2508
1.15	27.2535
1.144	27.235
1.138	27.2921
1.132	27.3685
1.126	27.4802
1.12	27.5103
1.114	27.5206
1.108	27.5969
1.102	27.5835
1.096	27.6236
1.09	27.6648
1.084	27.7302
1.078	27.681
1.072	27.7699
1.066	27.8051
1.06	27.8007
1.054	27.7963
1.048	27.7913
1.042	27.789
1.036	27.8089
1.03	27.7767
1.024	27.8626
1.018	27.718
1.012	27.7536
1.006	27.7524
1	27.6946
0.994	27.6909
0.988	27.5905
0.982	27.6356
0.976	27.5075
0.97	27.4629
0.964	27.4081
0.958	27.2531
0.952	27.2195
0.946	27.0515
0.94	26.9434
0.934	26.8189
0.928	26.6735
0.922	26.4785
0.916	26.2929
0.91	26.1647
0.904	25.9674
0.898	25.7452
0.892	25.6668
0.886	25.4145
0.88	25.2071
0.874	25.1117
0.868	24.8406
0.862	24.6295
0.856	24.6425
0.85	24.4484
0.844	24.2246
0.838	23.9814
0.832	23.7744
0.826	23.5233
0.82	23.2978
0.814	23.0617
0.808	22.7847
0.802	22.5265
0.796	22.2174
0.79	21.9355
0.784	21.65
0.778	21.3479
0.772	21.0391
0.766	20.7643
0.76	20.4669
0.754	20.1678
0.748	19.9072
0.742	19.6452
0.736	19.401
0.73	19.1122
0.724	18.8521
0.718	18.6212
0.712	18.3705
0.706	18.1188
0.7	17.8515
0.694	17.5855
0.688	17.3149
0.682	17.053
0.676	16.7774
0.67	16.5029
0.664	16.2208
0.658	15.9368
0.652	15.6493
0.646	15.3595
0.64	15.0651
0.634	14.7724
0.628	14.4832
0.622	14.1982
0.616	13.9225
0.61	13.6497
0.604	13.3831
0.598	13.1303
0.592	12.8872
0.586	12.6444
0.58	12.4019
0.574	12.166
0.568	11.9416
0.562	11.7224
0.556	11.5131
0.55	11.319
0.544	11.145
0.538	10.9851
0.532	10.84
0.526	10.7079
0.52	10.5822
0.514	10.4738
0.508	10.3754
0.502	10.2859
0.496	10.2065
0.49	10.1477
0.484	10.1089
0.478	10.0721
0.472	10.0531
0.466	10.04
0.46	10.0386
0.454	10.0534
0.448	10.0665
0.442	10.097
0.436	10.1311
0.43	10.1759
0.424	10.2258
0.418	10.2993
0.412	10.3874
0.406	10.4811
0.4	10.5905
