Name: Montmorillonite (Na,Ca)_0.33(Al,Mg)_2Si_4O_10(OH)_2.H_2O
Type: Mineral
Class: Silicates
Subclass: Phyllosilicates
Particle Size: 0-45um
Sample No.: PS-2D
Owner: JPL
Origin: USA, Wyoming, Crook County.
Measurement: Hemispherical reflectance
X Units: Wavelength (micrometers)
Y Units: Reflectance (percent)
wavelength	value
2.5	47.4727
2.494	47.4486
2.488	48.0581
2.482	48.3724
2.476	48.6384
2.47	49.0952
2.464	49.4727
2.458	49.9622
2.452	50.3723
2.446	51.0159
2.44	51.6137
2.434	52.2721
2.428	53.0182
2.422	53.6773
2.416	54.2377
2.41	54.8558
2.404	55.3428
2.398	55.9427
2.392	56.4413
2.386	57.0179
2.38	57.6398
2.374	58.2382
2.368	58.7482
2.362	59.2366
2.356	59.8577
2.35	60.5121
2.344	61.2889
2.338	62.0209
2.332	62.6918
2.326	63.3663
2.32	63.9375
2.314	64.4621
2.308	64.9574
2.302	65.5503
2.296	66.0945
2.29	66.7847
2.284	67.2589
2.278	67.7128
2.272	67.984
2.266	68.1008
2.26	67.9188
2.254	67.4108
2.248	66.513
2.242	65.5915
2.236	64.6457
2.23	63.903
2.224	63.0726
2.218	61.6048
2.212	60.1388
2.206	59.576
2.2	60.4732
2.194	62.1968
2.188	64.0395
2.182	65.7671
2.176	67.4979
2.17	69.1004
2.164	70.5905
2.158	71.6572
2.152	72.2869
2.146	72.6407
2.14	72.8428
2.134	72.8622
2.128	72.708
2.122	72.4492
2.116	72.1961
2.11	71.6074
2.104	71.2596
2.098	71.0351
2.092	70.9626
2.086	70.9571
2.08	70.9905
2.074	70.9406
2.068	70.9384
2.062	70.8425
2.056	70.7144
2.05	70.481
2.044	70.2371
2.038	69.8993
2.032	69.4043
2.026	68.8221
2.02	68.2121
2.014	67.5687
2.008	66.8242
2.002	66.0373
1.996	65.1997
1.99	64.3522
1.984	63.4966
1.978	62.6694
1.972	61.9681
1.966	61.3214
1.96	60.7959
1.954	60.3831
1.948	59.8546
1.942	59.3768
1.936	58.6395
1.93	57.5531
1.924	55.7474
1.918	53.1906
1.912	50.5559
1.906	48.8876
1.9	50.9902
1.894	56.3776
1.888	62.7525
1.882	67.9171
1.876	71.2746
1.87	74.0692
1.864	75.6777
1.858	76.6746
1.852	77.3435
1.846	77.7409
1.84	77.9523
1.834	78.138
1.828	78.2742
1.822	78.4052
1.816	78.5343
1.81	78.5785
1.804	78.6029
1.798	78.693
1.792	78.7363
1.786	78.7747
1.78	78.8916
1.774	79.0684
1.768	79.2375
1.762	79.2255
1.756	79.4931
1.75	79.6535
1.744	79.6909
1.738	79.9177
1.732	80.0593
1.726	80.1418
1.72	80.2481
1.714	80.2637
1.708	80.3344
1.702	80.434
1.696	80.3742
1.69	80.4269
1.684	80.3887
1.678	80.3838
1.672	80.4793
1.666	80.4115
1.66	80.3576
1.654	80.3629
1.648	80.2511
1.642	80.2334
1.636	80.2542
1.63	80.2053
1.624	80.1538
1.618	80.1361
1.612	79.9594
1.606	79.9876
1.6	79.8284
1.594	79.7762
1.588	79.7393
1.582	79.5592
1.576	79.4768
1.57	79.3308
1.564	79.1756
1.558	79.1415
1.552	78.9071
1.546	78.6742
1.54	78.4772
1.534	78.2855
1.528	78.0744
1.522	77.8473
1.516	77.5327
1.51	77.2293
1.504	76.9165
1.498	76.6
1.492	76.194
1.486	75.7398
1.48	75.1672
1.474	74.5815
1.468	73.8124
1.462	73.4893
1.456	73.4389
1.45	73.3649
1.444	72.9121
1.438	72.1541
1.432	70.6667
1.426	68.7256
1.42	66.4306
1.414	65.0266
1.408	65.8099
1.402	68.0579
1.396	71.0295
1.39	73.9468
1.384	76.0415
1.378	77.348
1.372	78.3309
1.366	78.8138
1.36	79.1107
1.354	79.2067
1.348	79.404
1.342	79.4722
1.336	79.635
1.33	79.6869
1.324	79.6435
1.318	79.8951
1.312	79.9854
1.306	80.0441
1.3	80.0686
1.294	80.0693
1.288	80.1241
1.282	80.1238
1.276	80.1619
1.27	80.0883
1.264	80.0557
1.258	80.0438
1.252	79.9764
1.246	79.9003
1.24	79.9156
1.234	79.8567
1.228	79.8399
1.222	79.8391
1.216	79.7757
1.21	79.7289
1.204	79.6855
1.198	79.6287
1.192	79.5937
1.186	79.5368
1.18	79.5391
1.174	79.5085
1.168	79.396
1.162	79.3184
1.156	79.195
1.15	79.2607
1.144	79.3553
1.138	79.5619
1.132	79.6157
1.126	79.6536
1.12	79.5645
1.114	79.6698
1.108	79.5967
1.102	79.554
1.096	79.6583
1.09	79.518
1.084	79.495
1.078	79.4309
1.072	79.4815
1.066	79.4247
1.06	79.422
1.054	79.4266
1.048	79.3078
1.042	79.2177
1.036	79.2154
1.03	79.1343
1.024	79.1041
1.018	79.0783
1.012	79.0202
1.006	78.8761
1	78.9323
0.994	78.8399
0.988	78.6691
0.982	78.5827
0.976	78.4222
0.97	78.3068
0.964	78.1628
0.958	78.1926
0.952	78.2261
0.946	78.3587
0.94	78.2745
0.934	78.291
0.928	78.314
0.922	78.3313
0.916	78.2145
0.91	78.2421
0.904	78.1459
0.898	78.2344
0.892	78.1999
0.886	78.1823
0.88	78.2035
0.874	78.1908
0.868	78.2513
0.862	78.2789
0.856	78.4999
0.85	78.4253
0.844	78.5304
0.838	78.5536
0.832	78.5856
0.826	78.6267
0.82	78.6152
0.814	78.7088
0.808	78.7228
0.802	78.7564
0.796	78.6726
0.79	78.6575
0.784	78.6826
0.778	78.5663
0.772	78.5877
0.766	78.5041
0.76	78.4887
0.754	78.422
0.748	78.3737
0.742	78.268
0.736	78.1988
0.73	78.1342
0.724	77.9956
0.718	77.8762
0.712	77.7185
0.706	77.5608
0.7	77.3568
0.694	77.1548
0.688	76.9289
0.682	76.7054
0.676	76.4874
0.67	76.2648
0.664	76.0392
0.658	75.836
0.652	75.6873
0.646	75.5433
0.64	75.4086
0.634	75.3479
0.628	75.279
0.622	75.2491
0.616	75.2558
0.61	75.2324
0.604	75.2588
0.598	75.2995
0.592	75.361
0.586	75.3496
0.58	75.3121
0.574	75.2481
0.568	75.1699
0.562	75.0197
0.556	74.7623
0.55	74.4208
0.544	73.9249
0.538	73.4296
0.532	72.9391
0.526	72.367
0.52	71.5927
0.514	70.6453
0.508	69.8871
0.502	69.3227
0.496	68.7978
0.49	68.2235
0.484	67.7682
0.478	67.425
0.472	66.9764
0.466	66.3394
0.46	65.6292
0.454	64.8835
0.448	63.9675
0.442	62.7107
0.436	61.2618
0.43	60.0673
0.424	58.7142
0.418	57.1031
0.412	55.3617
0.406	53.6554
0.4	51.9754
