Name: Pyrite FeS_2
Type: Mineral
Class: Sulfides
Particle Size: 125-500um
Sample No.: S-2A
Owner: JPL
Wavelength Range: VNIR-SWIR
Origin: Italy, Tuscany, Elba, Rio Marina Isle
Measurement: Hemispherical reflectance
X Units: Wavelength (micrometers)
Y Units: Reflectance (percent)
wavelength	value
0.4	9.26
0.403	9.33
0.406	9.37
0.409	9.5
0.412	9.68
0.415	9.78
0.418	9.81
0.421	9.97
0.424	10.2
0.427	10.18
0.43	10.32
0.433	10.48
0.436	10.66
0.439	10.78
0.442	11.01
0.445	10.91
0.448	11.22
0.451	11.4
0.454	11.49
0.457	11.66
0.46	11.84
0.463	12.1
0.466	12.25
0.469	12.52
0.472	12.69
0.475	12.85
0.478	12.98
0.481	13.28
0.484	13.46
0.487	13.55
0.49	13.74
0.493	13.85
0.496	14.12
0.499	14.21
0.502	14.28
0.505	14.51
0.508	14.57
0.511	14.75
0.514	14.87
0.517	14.87
0.52	14.87
0.523	15.13
0.526	15.18
0.529	15.16
0.532	15.23
0.535	15.38
0.538	15.47
0.541	15.48
0.544	15.51
0.547	15.54
0.55	15.74
0.553	15.77
0.556	15.78
0.559	15.97
0.562	16.01
0.565	16.09
0.568	16.05
0.571	16.08
0.574	16.15
0.577	16.24
0.58	16.15
0.583	16.23
0.586	16.19
0.589	16.3
0.592	16.39
0.595	16.34
0.598	16.29
0.601	16.31
0.604	16.46
0.607	16.37
0.61	16.33
0.613	16.33
0.616	16.29
0.619	16.46
0.622	16.41
0.625	16.41
0.628	16.45
0.631	16.51
0.634	16.52
0.637	16.53
0.64	16.52
0.643	16.69
0.646	16.67
0.649	16.66
0.652	16.76
0.655	16.82
0.658	16.93
0.661	17
0.664	17
0.667	16.99
0.67	17.04
0.673	17.2
0.676	17.19
0.679	17.22
0.682	17.28
0.685	17.29
0.688	17.35
0.691	17.33
0.694	17.22
0.697	17.35
0.7	17.35
0.703	17.38
0.706	17.41
0.709	17.49
0.712	17.4
0.715	17.46
0.718	17.38
0.721	17.33
0.724	17.44
0.727	17.4
0.73	17.35
0.733	17.18
0.736	17.15
0.739	17.21
0.742	17.16
0.745	17.03
0.748	17.05
0.751	16.97
0.754	17.01
0.757	17.06
0.76	16.86
0.763	16.84
0.766	16.79
0.769	16.77
0.772	16.72
0.775	16.7
0.778	16.52
0.781	16.49
0.784	16.47
0.787	16.5
0.79	16.42
0.793	16.3
0.796	16.29
0.799	16.15
0.808	16.3
0.82	16.11
0.832	15.92
0.844	15.75
0.856	15.65
0.868	15.54
0.88	15.35
0.892	15.22
0.904	15.11
0.916	15.03
0.928	14.85
0.94	14.87
0.952	14.77
0.964	14.64
0.976	14.56
0.988	14.43
1	14.41
1.012	14.27
1.024	14.12
1.036	14.09
1.048	13.99
1.06	14
1.072	13.9
1.084	13.84
1.096	13.83
1.108	13.75
1.12	13.72
1.132	13.69
1.144	13.53
1.156	13.54
1.168	13.46
1.18	13.39
1.192	13.39
1.204	13.33
1.216	13.32
1.228	13.37
1.24	13.34
1.252	13.32
1.264	13.28
1.276	13.26
1.288	13.18
1.3	13.15
1.312	13.14
1.324	13.14
1.336	13.1
1.348	13.12
1.36	13.11
1.372	13.08
1.384	13.1
1.396	13.09
1.408	13.1
1.42	13.16
1.432	13.17
1.444	13.23
1.456	13.19
1.468	13.27
1.48	13.24
1.492	13.23
1.504	13.13
1.516	13.27
1.528	13.19
1.54	13.23
1.552	13.21
1.564	13.2
1.576	13.3
1.588	13.21
1.6	13.27
1.612	13.27
1.624	13.27
1.636	13.18
1.648	13.22
1.66	13.19
1.672	13.17
1.684	13.12
1.696	13.12
1.708	13.1
1.72	13.15
1.732	13.08
1.744	13.07
1.756	13.04
1.768	13.04
1.78	13.01
1.792	12.93
1.804	12.96
1.816	12.91
1.828	12.94
1.84	12.94
1.852	12.86
1.864	12.91
1.876	12.81
1.888	12.76
1.9	12.75
1.912	12.67
1.924	12.68
1.936	12.71
1.948	12.8
1.96	12.77
1.972	12.72
1.984	12.75
1.996	12.69
2.008	12.67
2.02	12.76
2.032	12.74
2.044	12.79
2.056	12.8
2.068	12.77
2.08	12.84
2.092	12.86
2.104	12.87
2.116	12.8
2.128	12.84
2.14	12.78
2.152	12.82
2.164	12.78
2.176	12.84
2.188	12.83
2.2	12.79
2.212	12.82
2.224	12.83
2.236	12.82
2.248	12.86
2.26	12.82
2.272	12.83
2.284	12.87
2.296	12.83
2.308	12.83
2.32	12.83
2.332	12.84
2.344	12.88
2.356	12.87
2.368	12.89
2.38	12.89
2.392	12.82
2.404	12.85
2.416	12.9
2.428	12.9
2.44	12.93
2.452	12.9
2.464	12.88
2.476	12.87
2.488	12.92
2.5	12.93
