Name: Amblygonite (Li,Na)Al(PO_4)(F,OH)
Type: Mineral
Class: Phosphates
Particle Size: 0-45um
Sample No.: P-3A
Owner: JPL
Origin: USA, California, San Diego County, Pala.
Measurement: Hemispherical reflectance
X Units: Wavelength (micrometers)
Y Units: Reflectance (percent)
wavelength	value
2.5	59.7372
2.494	60.0669
2.488	60.6865
2.482	61.5125
2.476	62.2072
2.47	63.0782
2.464	64.1224
2.458	65.1764
2.452	65.9399
2.446	66.6359
2.44	67.3328
2.434	67.8305
2.428	68.0311
2.422	68.1158
2.416	68.1954
2.41	67.7453
2.404	66.9179
2.398	65.187
2.392	62.2662
2.386	58.7407
2.38	55.7282
2.374	54.6341
2.368	56.1283
2.362	59.6658
2.356	64.2351
2.35	68.1693
2.344	70.999
2.338	72.4585
2.332	73.1034
2.326	73.3958
2.32	73.4579
2.314	73.4446
2.308	73.2477
2.302	72.8573
2.296	72.4507
2.29	72.0973
2.284	71.6044
2.278	71.1588
2.272	70.8591
2.266	70.4499
2.26	70.0583
2.254	69.5824
2.248	68.8692
2.242	68.1646
2.236	67.2029
2.23	66.2374
2.224	65.0922
2.218	63.7282
2.212	61.992
2.206	59.9048
2.2	57.6489
2.194	55.3169
2.188	53.1508
2.182	51.3469
2.176	50.7743
2.17	53.1661
2.164	58.7744
2.158	65.2722
2.152	70.076
2.146	72.5905
2.14	73.7521
2.134	74.3227
2.128	74.5901
2.122	74.7922
2.116	75.0173
2.11	75.2529
2.104	75.4957
2.098	75.6615
2.092	75.9388
2.086	76.012
2.08	76.0291
2.074	75.9433
2.068	75.9377
2.062	75.9698
2.056	76.1723
2.05	76.3809
2.044	76.7188
2.038	77.0045
2.032	77.2793
2.026	77.3786
2.02	77.1964
2.014	76.6765
2.008	75.4475
2.002	73.3964
1.996	71.9076
1.99	72.3687
1.984	74.4091
1.978	76.2318
1.972	77.3099
1.966	77.9041
1.96	78.1462
1.954	78.2293
1.948	78.3039
1.942	78.2931
1.936	78.2916
1.93	78.4324
1.924	78.3998
1.918	78.4219
1.912	78.7025
1.906	78.8371
1.9	79.0738
1.894	79.485
1.888	79.7743
1.882	79.8715
1.876	79.9725
1.87	79.9337
1.864	79.7372
1.858	79.4055
1.852	79.0897
1.846	79.0976
1.84	79.7909
1.834	80.8093
1.828	81.3975
1.822	81.6085
1.816	81.7192
1.81	81.744
1.804	81.7631
1.798	81.7247
1.792	81.6069
1.786	81.5512
1.78	81.4443
1.774	81.3092
1.768	81.2871
1.762	81.4147
1.756	81.4322
1.75	81.4944
1.744	81.5476
1.738	81.5992
1.732	81.6967
1.726	81.7796
1.72	82.0081
1.714	82.1421
1.708	82.2705
1.702	82.2735
1.696	82.3504
1.69	82.3515
1.684	82.3785
1.678	82.3905
1.672	82.406
1.666	82.5024
1.66	82.5475
1.654	82.3926
1.648	82.4869
1.642	82.4085
1.636	82.57
1.63	82.4755
1.624	82.4558
1.618	82.4187
1.612	82.2796
1.606	82.2615
1.6	82.4068
1.594	82.2822
1.588	82.1651
1.582	82.0153
1.576	81.8197
1.57	81.5843
1.564	81.3605
1.558	81.0022
1.552	80.7014
1.546	80.5024
1.54	80.4954
1.534	80.6576
1.528	81.0467
1.522	81.3514
1.516	81.7178
1.51	82.145
1.504	82.3968
1.498	82.6133
1.492	82.7684
1.486	82.8459
1.48	82.8954
1.474	83.0278
1.468	83.2034
1.462	83.3198
1.456	83.3345
1.45	83.1939
1.444	83.134
1.438	83.3403
1.432	83.0233
1.426	82.9398
1.42	82.4982
1.414	82.0739
1.408	83.2786
1.402	83.5081
1.396	83.6738
1.39	83.862
1.384	84.1066
1.378	84.4208
1.372	84.4396
1.366	84.4587
1.36	84.4293
1.354	84.4147
1.348	84.5359
1.342	84.5961
1.336	84.6824
1.33	84.716
1.324	84.7047
1.318	84.6864
1.312	84.735
1.306	84.7636
1.3	84.7381
1.294	84.6752
1.288	84.6886
1.282	84.7471
1.276	84.8364
1.27	84.8423
1.264	84.7879
1.258	84.9049
1.252	84.8502
1.246	84.9014
1.24	84.8819
1.234	84.9162
1.228	84.8944
1.222	84.9338
1.216	84.932
1.21	84.9192
1.204	84.8954
1.198	84.948
1.192	84.9661
1.186	84.9683
1.18	84.9315
1.174	84.9504
1.168	84.9734
1.162	84.9675
1.156	85.0201
1.15	84.9697
1.144	84.9509
1.138	84.8753
1.132	84.9688
1.126	84.9171
1.12	84.9674
1.114	85.0292
1.108	84.9536
1.102	85.0029
1.096	84.9602
1.09	84.9369
1.084	85.0233
1.078	84.8946
1.072	84.9869
1.066	85.0802
1.06	85.0118
1.054	85.0181
1.048	85.0066
1.042	84.9985
1.036	85.0761
1.03	85.0927
1.024	85.0237
1.018	85.0743
1.012	85.0849
1.006	85.0812
1	85.154
0.994	85.1207
0.988	85.1735
0.982	85.165
0.976	85.15
0.97	85.1298
0.964	85.1704
0.958	85.1929
0.952	85.1804
0.946	85.2958
0.94	85.2382
0.934	85.2548
0.928	85.2501
0.922	85.3168
0.916	85.2907
0.91	85.3193
0.904	85.3293
0.898	85.3462
0.892	85.3117
0.886	85.3569
0.88	85.2867
0.874	85.3473
0.868	85.2812
0.862	85.2728
0.856	85.3341
0.85	85.4726
0.844	85.3677
0.838	85.4348
0.832	85.4297
0.826	85.4717
0.82	85.466
0.814	85.4224
0.808	85.4522
0.802	85.4683
0.796	85.3644
0.79	85.3015
0.784	85.3468
0.778	85.3207
0.772	85.2219
0.766	85.2973
0.76	85.2619
0.754	85.218
0.748	85.2081
0.742	85.1784
0.736	85.1588
0.73	85.1661
0.724	85.1801
0.718	85.1486
0.712	85.1084
0.706	85.1168
0.7	85.1165
0.694	85.0865
0.688	85.0671
0.682	85.0709
0.676	85.0178
0.67	85.0182
0.664	85.0009
0.658	84.9572
0.652	84.9399
0.646	84.9004
0.64	84.8735
0.634	84.8171
0.628	84.7731
0.622	84.754
0.616	84.7061
0.61	84.6581
0.604	84.6035
0.598	84.6029
0.592	84.5941
0.586	84.5316
0.58	84.4714
0.574	84.4069
0.568	84.3449
0.562	84.2817
0.556	84.1686
0.55	84.1041
0.544	84.0162
0.538	83.9303
0.532	83.8372
0.526	83.7263
0.52	83.6152
0.514	83.5099
0.508	83.3441
0.502	83.2174
0.496	83.04
0.49	82.8863
0.484	82.6676
0.478	82.4861
0.472	82.3284
0.466	82.1096
0.46	81.8909
0.454	81.6302
0.448	81.3901
0.442	81.1339
0.436	80.8617
0.43	80.5658
0.424	80.2446
0.418	79.9262
0.412	79.5324
0.406	79.125
0.4	78.6155
