Name: Marcasite FeS_2
Type: Mineral
Class: Sulfides
Particle Size: 45-125um
Sample No.: S-10A
Owner: JPL
Origin: USA, Indiana, Jasper County, Rensselaer, Pleasant Ridge Quarry.
Measurement: Hemispherical reflectance
X Units: Wavelength (micrometers)
Y Units: Reflectance (percent)
wavelength	value
2.5	8.59183
2.494	8.339
2.488	8.51429
2.482	8.50417
2.476	8.52279
2.47	8.50585
2.464	8.53588
2.458	8.49726
2.452	8.65125
2.446	8.53233
2.44	8.59852
2.434	8.64401
2.428	8.59013
2.422	8.62276
2.416	8.60974
2.41	8.64541
2.404	8.70638
2.398	8.69128
2.392	8.69708
2.386	8.66762
2.38	8.7054
2.374	8.74623
2.368	8.70667
2.362	8.75904
2.356	8.74788
2.35	8.74715
2.344	8.71879
2.338	8.73023
2.332	8.78819
2.326	8.80157
2.32	8.82383
2.314	8.77788
2.308	8.76218
2.302	8.80553
2.296	8.79804
2.29	8.80113
2.284	8.75366
2.278	8.77742
2.272	8.76492
2.266	8.82623
2.26	8.80801
2.254	8.80271
2.248	8.86447
2.242	8.95161
2.236	8.83945
2.23	8.82127
2.224	8.8182
2.218	8.84902
2.212	8.93317
2.206	8.8032
2.2	8.89058
2.194	8.96023
2.188	8.89316
2.182	8.91849
2.176	8.92236
2.17	8.94106
2.164	8.91669
2.158	8.90171
2.152	8.95352
2.146	8.95716
2.14	8.91059
2.134	8.86022
2.128	8.9774
2.122	8.84707
2.116	8.86816
2.11	8.83181
2.104	8.76487
2.098	8.77285
2.092	8.77923
2.086	8.71329
2.08	8.71628
2.074	8.79143
2.068	8.78418
2.062	8.75248
2.056	8.78668
2.05	8.79042
2.044	8.70786
2.038	8.75027
2.032	8.73079
2.026	8.73213
2.02	8.73454
2.014	8.7422
2.008	8.67962
2.002	8.66254
1.996	8.69977
1.99	8.64669
1.984	8.65426
1.978	8.63363
1.972	8.58463
1.966	8.56556
1.96	8.56318
1.954	8.506
1.948	8.51022
1.942	8.59729
1.936	8.48982
1.93	8.46192
1.924	8.42825
1.918	8.5245
1.912	8.49084
1.906	8.49971
1.9	8.45305
1.894	8.50539
1.888	8.50012
1.882	8.52586
1.876	8.4795
1.87	8.52892
1.864	8.51169
1.858	8.49803
1.852	8.53612
1.846	8.48746
1.84	8.46136
1.834	8.48431
1.828	8.44988
1.822	8.40022
1.816	8.47827
1.81	8.42732
1.804	8.43317
1.798	8.43462
1.792	8.41901
1.786	8.38958
1.78	8.38035
1.774	8.39215
1.768	8.33006
1.762	8.35419
1.756	8.34094
1.75	8.34077
1.744	8.30306
1.738	8.31278
1.732	8.3037
1.726	8.26761
1.72	8.2902
1.714	8.28611
1.708	8.2124
1.702	8.23157
1.696	8.22346
1.69	8.19991
1.684	8.13848
1.678	8.14033
1.672	8.06711
1.666	8.12477
1.66	8.16471
1.654	8.11949
1.648	8.08712
1.642	8.15537
1.636	8.01188
1.63	8.06823
1.624	7.98354
1.618	8.07288
1.612	7.91153
1.606	7.96181
1.6	7.94857
1.594	7.85487
1.588	7.86671
1.582	7.8649
1.576	7.81961
1.57	7.78851
1.564	7.79087
1.558	7.72464
1.552	7.66632
1.546	7.6543
1.54	7.68395
1.534	7.66237
1.528	7.61345
1.522	7.58297
1.516	7.58132
1.51	7.55052
1.504	7.49259
1.498	7.50214
1.492	7.43271
1.486	7.44184
1.48	7.42246
1.474	7.36477
1.468	7.30392
1.462	7.34029
1.456	7.28815
1.45	7.30623
1.444	7.29143
1.438	7.27516
1.432	7.20364
1.426	7.19614
1.42	7.11617
1.414	7.1242
1.408	7.08819
1.402	7.15393
1.396	7.03567
1.39	7.04549
1.384	7.00392
1.378	7.06048
1.372	6.94527
1.366	6.87117
1.36	6.86883
1.354	6.87718
1.348	6.80416
1.342	6.76718
1.336	6.87794
1.33	6.84532
1.324	6.81532
1.318	6.67724
1.312	6.73325
1.306	6.75188
1.3	6.65235
1.294	6.64977
1.288	6.62552
1.282	6.65697
1.276	6.58001
1.27	6.52226
1.264	6.47804
1.258	6.49883
1.252	6.41237
1.246	6.44057
1.24	6.41546
1.234	6.36632
1.228	6.38703
1.222	6.32181
1.216	6.30751
1.21	6.26948
1.204	6.67739
1.198	6.18899
1.192	6.27113
1.186	6.19682
1.18	6.11229
1.174	6.14505
1.168	6.08792
1.162	6.12081
1.156	6.07784
1.15	6.02934
1.144	5.98622
1.138	6.09814
1.132	6.01564
1.126	5.96746
1.12	5.88157
1.114	5.94182
1.108	5.84534
1.102	5.81179
1.096	5.86207
1.09	5.83042
1.084	5.72979
1.078	5.72633
1.072	5.7831
1.066	5.80075
1.06	5.64732
1.054	5.7505
1.048	5.61851
1.042	5.67069
1.036	5.58061
1.03	5.61599
1.024	5.53584
1.018	5.53103
1.012	5.53932
1.006	5.41967
1	5.42131
0.994	5.43907
0.988	5.48583
0.982	5.40872
0.976	5.39603
0.97	5.3632
0.964	5.36728
0.958	5.30819
0.952	5.31115
0.946	5.31398
0.94	5.26121
0.934	5.25782
0.928	5.24144
0.922	5.28411
0.916	5.21186
0.91	5.22185
0.904	5.14868
0.898	5.22403
0.892	5.17569
0.886	5.18019
0.88	5.16927
0.874	5.15819
0.868	5.12613
0.862	5.16988
0.856	5.3667
0.85	5.36439
0.844	5.3933
0.838	5.39237
0.832	5.38519
0.826	5.38442
0.82	5.38895
0.814	5.39767
0.808	5.39326
0.802	5.39506
0.796	5.39232
0.79	5.37794
0.784	5.37326
0.778	5.37313
0.772	5.35463
0.766	5.3552
0.76	5.34246
0.754	5.32355
0.748	5.31476
0.742	5.28854
0.736	5.27476
0.73	5.25457
0.724	5.22901
0.718	5.20146
0.712	5.17943
0.706	5.14969
0.7	5.12319
0.694	5.10107
0.688	5.0716
0.682	5.0469
0.676	5.0206
0.67	4.99676
0.664	4.97435
0.658	4.9537
0.652	4.93307
0.646	4.91807
0.64	4.90194
0.634	4.88672
0.628	4.87543
0.622	4.86274
0.616	4.85307
0.61	4.84057
0.604	4.83084
0.598	4.81923
0.592	4.80638
0.586	4.78476
0.58	4.75466
0.574	4.71155
0.568	4.66064
0.562	4.59006
0.556	4.49982
0.55	4.38751
0.544	4.25498
0.538	4.1174
0.532	3.95921
0.526	3.79922
0.52	3.64462
0.514	3.50353
0.508	3.37598
0.502	3.26241
0.496	3.16172
0.49	3.07821
0.484	3.01808
0.478	2.97537
0.472	2.95148
0.466	2.93789
0.46	2.94052
0.454	2.94038
0.448	2.92952
0.442	2.89687
0.436	2.85136
0.43	2.80746
0.424	2.78842
0.418	2.78046
0.412	2.78871
0.406	2.81478
0.4	2.85247
