Name: Chalcocite Cu_2S
Type: Mineral
Class: Sulfides
Particle Size: 125-500um
Sample No.: S-8A
Owner: JPL
Wavelength Range: VNIR-SWIR
Origin: USA, Alaska, Kennecott
Measurement: Hemispherical reflectance
X Units: Wavelength (micrometers)
Y Units: Reflectance (percent)
wavelength	value
0.4	7.01
0.403	6.97
0.406	6.97
0.409	7.02
0.412	6.89
0.415	6.96
0.418	7.03
0.421	7.06
0.424	7.07
0.427	6.99
0.43	7.01
0.433	6.89
0.436	7
0.439	7.11
0.442	7
0.445	7
0.448	6.98
0.451	6.92
0.454	6.98
0.457	6.98
0.46	6.96
0.463	6.84
0.466	6.86
0.469	6.79
0.472	6.74
0.475	6.78
0.478	6.78
0.481	6.76
0.484	6.81
0.487	6.76
0.49	6.63
0.493	6.71
0.496	6.69
0.499	6.66
0.502	6.65
0.505	6.59
0.508	6.57
0.511	6.61
0.514	6.63
0.517	6.56
0.52	6.57
0.523	6.57
0.526	6.51
0.529	6.52
0.532	6.46
0.535	6.52
0.538	6.41
0.541	6.46
0.544	6.38
0.547	6.4
0.55	6.36
0.553	6.41
0.556	6.36
0.559	6.39
0.562	6.35
0.565	6.33
0.568	6.38
0.571	6.45
0.574	6.39
0.577	6.43
0.58	6.38
0.583	6.23
0.586	6.3
0.589	6.3
0.592	6.35
0.595	6.3
0.598	6.34
0.601	6.22
0.604	6.26
0.607	6.24
0.61	6.25
0.613	6.24
0.616	6.38
0.619	6.3
0.622	6.13
0.625	6.18
0.628	6.2
0.631	6.24
0.634	6.25
0.637	6.25
0.64	6.16
0.643	6.07
0.646	6.19
0.649	6.24
0.652	6.15
0.655	6.2
0.658	6.14
0.661	6.08
0.664	6.14
0.667	6.09
0.67	6.14
0.673	6.14
0.676	6.14
0.679	6.09
0.682	6.08
0.685	6.13
0.688	6.08
0.691	6.09
0.694	6.19
0.697	6.03
0.7	6.01
0.703	6.13
0.706	6.18
0.709	6.14
0.712	6.06
0.715	6.08
0.718	6.07
0.721	6.13
0.724	6.18
0.727	6.17
0.73	6.08
0.733	5.94
0.736	6.12
0.739	6.12
0.742	6.16
0.745	6.13
0.748	6.11
0.751	6.12
0.754	6.12
0.757	6.11
0.76	6.06
0.763	6.11
0.766	6.17
0.769	6.04
0.772	5.99
0.775	6.16
0.778	6.28
0.781	6.34
0.784	6.21
0.787	6.16
0.79	6.15
0.793	6.15
0.796	6.16
0.799	6.11
0.808	6.42
0.82	6.37
0.832	6.39
0.844	6.35
0.856	6.43
0.868	6.36
0.88	6.3
0.892	6.42
0.904	6.36
0.916	6.43
0.928	6.3
0.94	6.38
0.952	6.44
0.964	6.44
0.976	6.37
0.988	6.41
1	6.41
1.012	6.47
1.024	6.61
1.036	6.59
1.048	6.66
1.06	6.6
1.072	6.63
1.084	6.64
1.096	6.54
1.108	6.54
1.12	6.56
1.132	6.45
1.144	6.44
1.156	6.54
1.168	6.4
1.18	6.32
1.192	6.34
1.204	6.3
1.216	6.36
1.228	6.31
1.24	6.25
1.252	6.28
1.264	6.28
1.276	6.16
1.288	6.21
1.3	6.18
1.312	6.23
1.324	6.13
1.336	6.11
1.348	6.21
1.36	6.05
1.372	6.1
1.384	6.03
1.396	6.07
1.408	6.12
1.42	6.02
1.432	6.02
1.444	6.06
1.456	6.05
1.468	5.99
1.48	6
1.492	5.99
1.504	5.95
1.516	6.01
1.528	5.96
1.54	5.98
1.552	5.92
1.564	6.01
1.576	5.94
1.588	5.94
1.6	5.94
1.612	5.95
1.624	5.95
1.636	5.92
1.648	5.98
1.66	5.92
1.672	5.97
1.684	5.88
1.696	5.9
1.708	5.91
1.72	5.98
1.732	5.93
1.744	6.02
1.756	5.93
1.768	5.97
1.78	5.96
1.792	5.97
1.804	6.02
1.816	5.95
1.828	5.96
1.84	5.99
1.852	5.93
1.864	6
1.876	5.99
1.888	6.08
1.9	6.02
1.912	6.09
1.924	6.03
1.936	6.09
1.948	6
1.96	6.16
1.972	6.08
1.984	6.16
1.996	6.16
2.008	6.19
2.02	6.18
2.032	6.21
2.044	6.24
2.056	6.26
2.068	6.29
2.08	6.23
2.092	6.31
2.104	6.31
2.116	6.37
2.128	6.42
2.14	6.31
2.152	6.33
2.164	6.46
2.176	6.36
2.188	6.42
2.2	6.43
2.212	6.44
2.224	6.49
2.236	6.45
2.248	6.49
2.26	6.57
2.272	6.53
2.284	6.57
2.296	6.61
2.308	6.54
2.32	6.54
2.332	6.61
2.344	6.66
2.356	6.74
2.368	6.73
2.38	6.71
2.392	6.81
2.404	6.76
2.416	6.8
2.428	6.75
2.44	6.8
2.452	6.78
2.464	6.8
2.476	6.78
2.488	6.91
2.5	7
