Name: Hydroxyapophyllite KCa_4Si_8O_20(OH,F).8H_2O
Type: Mineral
Class: Silicates
Subclass: Phyllosilicates
Particle Size: 0-45um
Sample No.: PS-22A
Owner: JPL
Wavelength Range: VNIR-SWIR
Origin: India, Maharashtra, Poona
Measurement: Hemispherical reflectance
X Units: Wavelength (micrometers)
Y Units: Reflectance (percent)
wavelength	value
0.4	85.16
0.403	85.35
0.406	85.3
0.409	85.41
0.412	85.25
0.415	85.49
0.418	85.41
0.421	85.56
0.424	85.6
0.427	85.53
0.43	85.56
0.433	85.85
0.436	85.92
0.439	85.93
0.442	86.09
0.445	85.92
0.448	86.08
0.451	86.18
0.454	86.26
0.457	86.26
0.46	86.34
0.463	86.36
0.466	86.41
0.469	86.54
0.472	86.57
0.475	86.75
0.478	86.53
0.481	86.77
0.484	86.84
0.487	86.84
0.49	86.73
0.493	86.79
0.496	86.88
0.499	87.07
0.502	86.97
0.505	86.93
0.508	87.03
0.511	87.13
0.514	87.31
0.517	87.31
0.52	87.26
0.523	87.24
0.526	87.25
0.529	87.46
0.532	87.42
0.535	87.25
0.538	87.42
0.541	87.35
0.544	87.44
0.547	87.47
0.55	87.33
0.553	87.49
0.556	87.42
0.559	87.49
0.562	87.77
0.565	87.95
0.568	87.8
0.571	87.71
0.574	87.58
0.577	87.5
0.58	87.64
0.583	87.63
0.586	87.5
0.589	87.68
0.592	87.51
0.595	87.56
0.598	87.75
0.601	87.65
0.604	87.74
0.607	87.76
0.61	87.75
0.613	87.8
0.616	87.62
0.619	87.64
0.622	87.69
0.625	87.59
0.628	87.68
0.631	87.59
0.634	87.59
0.637	87.52
0.64	87.67
0.643	87.66
0.646	87.59
0.649	87.58
0.652	87.62
0.655	87.76
0.658	87.74
0.661	87.71
0.664	87.63
0.667	87.69
0.67	87.7
0.673	87.76
0.676	87.53
0.679	87.69
0.682	87.6
0.685	87.72
0.688	87.82
0.691	87.69
0.694	87.94
0.697	87.69
0.7	87.73
0.703	87.59
0.706	87.94
0.709	87.76
0.712	87.83
0.715	87.76
0.718	87.71
0.721	87.86
0.724	87.77
0.727	87.83
0.73	87.74
0.733	87.6
0.736	87.64
0.739	87.7
0.742	87.83
0.745	87.65
0.748	87.77
0.751	87.59
0.754	87.71
0.757	87.54
0.76	87.66
0.763	87.6
0.766	87.55
0.769	87.78
0.772	87.61
0.775	87.67
0.778	87.56
0.781	87.61
0.784	87.79
0.787	87.79
0.79	87.63
0.793	87.8
0.796	87.91
0.799	87.7
0.808	87.77
0.82	87.88
0.832	87.98
0.844	87.98
0.856	87.9
0.868	87.95
0.88	88.01
0.892	88.01
0.904	87.77
0.916	87.76
0.928	87.76
0.94	87.82
0.952	87.72
0.964	87.23
0.976	86.23
0.988	86.59
1	87.47
1.012	87.52
1.024	87.53
1.036	87.6
1.048	87.52
1.06	87.54
1.072	87.59
1.084	87.53
1.096	87.47
1.108	87.48
1.12	87.39
1.132	87.42
1.144	86.86
1.156	84.61
1.168	85.55
1.18	86.43
1.192	86.74
1.204	86.62
1.216	86.66
1.228	86.71
1.24	86.48
1.252	86.45
1.264	86.32
1.276	86.21
1.288	85.92
1.3	85.78
1.312	85.22
1.324	84.65
1.336	84.08
1.348	84.35
1.36	84.54
1.372	84.43
1.384	84.16
1.396	82.49
1.408	79.87
1.42	74.69
1.432	66.58
1.444	67.31
1.456	74.67
1.468	76.45
1.48	76.64
1.492	76.41
1.504	75.96
1.516	75.83
1.528	77.58
1.54	78.66
1.552	79
1.564	78.96
1.576	78.55
1.588	77.85
1.6	77.24
1.612	76.33
1.624	75.22
1.636	74.16
1.648	73.13
1.66	72.24
1.672	71.19
1.684	69.92
1.696	68.55
1.708	67.31
1.72	66.73
1.732	66.23
1.744	65.72
1.756	65.49
1.768	65.09
1.78	65.01
1.792	64.81
1.804	64.78
1.816	64.93
1.828	64.99
1.84	64.87
1.852	64.25
1.864	62.94
1.876	60.69
1.888	54.39
1.9	41.09
1.912	37.98
1.924	47.82
1.936	54.77
1.948	56.84
1.96	57.25
1.972	57.27
1.984	57.05
1.996	57.21
2.008	57.52
2.02	57.83
2.032	57.98
2.044	58.03
2.056	58.06
2.068	58.19
2.08	58.62
2.092	58.4
2.104	57.73
2.116	56.8
2.128	56.06
2.14	56.1
2.152	56.87
2.164	57.76
2.176	58.31
2.188	58.87
2.2	59.74
2.212	60.65
2.224	61.47
2.236	61.92
2.248	62.08
2.26	62.13
2.272	62.04
2.284	61.22
2.296	60.3
2.308	60.05
2.32	60.27
2.332	59.3
2.344	56.08
2.356	49.73
2.368	42.06
2.38	36.63
2.392	34.61
2.404	35.23
2.416	37.5
2.428	39
2.44	38.52
2.452	37.66
2.464	37.8
2.476	39.23
2.488	41.27
2.5	43.06
