Name: Bornite Cu_5FeS_4
Type: Mineral
Class: Sulfides
Particle Size: 0-45um
Sample No.: S-9A
Owner: JPL
Wavelength Range: VNIR-SWIR
Origin: USA, Arizona, Pinal County, Superior, Magma Mine
Measurement: Hemispherical reflectance
X Units: Wavelength (micrometers)
Y Units: Reflectance (percent)
wavelength	value
0.4	6.41
0.403	6.33
0.406	6.32
0.409	6.13
0.412	6.07
0.415	5.89
0.418	5.94
0.421	5.89
0.424	5.82
0.427	5.69
0.43	5.57
0.433	5.66
0.436	5.59
0.439	5.4
0.442	5.34
0.445	5.34
0.448	5.28
0.451	5.2
0.454	5.07
0.457	5.07
0.46	5.09
0.463	4.93
0.466	5.03
0.469	4.96
0.472	4.9
0.475	4.79
0.478	4.74
0.481	4.8
0.484	4.67
0.487	4.76
0.49	4.59
0.493	4.62
0.496	4.66
0.499	4.58
0.502	4.63
0.505	4.51
0.508	4.39
0.511	4.47
0.514	4.37
0.517	4.39
0.52	4.38
0.523	4.31
0.526	4.32
0.529	4.25
0.532	4.32
0.535	4.16
0.538	4.22
0.541	4.21
0.544	4.2
0.547	4.3
0.55	4.16
0.553	4.26
0.556	4.16
0.559	4.22
0.562	4.38
0.565	4.25
0.568	4.19
0.571	4.3
0.574	4.25
0.577	4.31
0.58	4.2
0.583	4.26
0.586	4.34
0.589	4.39
0.592	4.46
0.595	4.27
0.598	4.37
0.601	4.4
0.604	4.43
0.607	4.59
0.61	4.41
0.613	4.46
0.616	4.54
0.619	4.58
0.622	4.69
0.625	4.63
0.628	4.65
0.631	4.63
0.634	4.75
0.637	4.76
0.64	4.7
0.643	4.81
0.646	4.75
0.649	4.92
0.652	4.94
0.655	4.98
0.658	5.05
0.661	5.04
0.664	5.17
0.667	5.22
0.67	5.16
0.673	5.21
0.676	5.29
0.679	5.39
0.682	5.44
0.685	5.43
0.688	5.39
0.691	5.56
0.694	5.57
0.697	5.67
0.7	5.54
0.703	5.67
0.706	5.78
0.709	5.84
0.712	5.88
0.715	5.89
0.718	5.9
0.721	6
0.724	6.06
0.727	6.05
0.73	6.13
0.733	6.11
0.736	6.23
0.739	6.23
0.742	6.34
0.745	6.33
0.748	6.34
0.751	6.44
0.754	6.44
0.757	6.57
0.76	6.51
0.763	6.56
0.766	6.67
0.769	6.78
0.772	6.85
0.775	6.85
0.778	6.8
0.781	6.89
0.784	7.01
0.787	7
0.79	7.01
0.793	7.02
0.796	7.19
0.799	7.4
0.808	7.43
0.82	7.61
0.832	7.74
0.844	7.89
0.856	8.04
0.868	8.1
0.88	8.15
0.892	8.27
0.904	8.33
0.916	8.35
0.928	8.5
0.94	8.46
0.952	8.59
0.964	8.65
0.976	8.7
0.988	8.77
1	8.73
1.012	8.82
1.024	8.83
1.036	8.93
1.048	8.91
1.06	9
1.072	9.05
1.084	9.07
1.096	9.09
1.108	9.13
1.12	9.17
1.132	9.23
1.144	9.21
1.156	9.32
1.168	9.3
1.18	9.3
1.192	9.29
1.204	9.31
1.216	9.36
1.228	9.36
1.24	9.44
1.252	9.45
1.264	9.39
1.276	9.49
1.288	9.61
1.3	9.66
1.312	9.62
1.324	9.67
1.336	9.69
1.348	9.69
1.36	9.69
1.372	9.74
1.384	9.76
1.396	9.8
1.408	9.79
1.42	9.81
1.432	9.9
1.444	9.84
1.456	9.86
1.468	9.88
1.48	9.99
1.492	9.87
1.504	9.93
1.516	9.88
1.528	9.89
1.54	9.94
1.552	9.99
1.564	9.95
1.576	9.98
1.588	9.98
1.6	9.98
1.612	10.06
1.624	9.99
1.636	10
1.648	10.01
1.66	10.02
1.672	10.11
1.684	10.07
1.696	10.09
1.708	10.09
1.72	10.06
1.732	10.02
1.744	10.08
1.756	10.1
1.768	10.07
1.78	10.06
1.792	10.1
1.804	10.13
1.816	10.07
1.828	10.12
1.84	10.13
1.852	10.16
1.864	10.11
1.876	10.08
1.888	10.16
1.9	10.19
1.912	10.12
1.924	10.07
1.936	10.05
1.948	10.11
1.96	10.08
1.972	10.14
1.984	10.13
1.996	10.19
2.008	10.22
2.02	10.21
2.032	10.18
2.044	10.23
2.056	10.13
2.068	10.15
2.08	10.15
2.092	10.19
2.104	10.28
2.116	10.23
2.128	10.27
2.14	10.28
2.152	10.24
2.164	10.25
2.176	10.17
2.188	10.18
2.2	10.24
2.212	10.25
2.224	10.22
2.236	10.21
2.248	10.19
2.26	10.22
2.272	10.28
2.284	10.32
2.296	10.31
2.308	10.24
2.32	10.17
2.332	10.28
2.344	10.31
2.356	10.28
2.368	10.29
2.38	10.31
2.392	10.3
2.404	10.34
2.416	10.38
2.428	10.38
2.44	10.32
2.452	10.3
2.464	10.32
2.476	10.29
2.488	10.32
2.5	10.41
