Name: Sepiolite Mg_4Si_6O_15(OH)_2.6H_2O
Type: Mineral
Class: Silicates
Subclass: Phyllosilicates
Particle Size: 125-500um
Sample No.: PS-5A
Owner: JPL
Origin: USA, Nevada, Two Crows.
Measurement: Hemispherical reflectance
X Units: Wavelength (micrometers)
Y Units: Reflectance (percent)
wavelength	value
2.5	15.8966
2.494	16.1516
2.488	16.7972
2.482	17.4607
2.476	18.0407
2.47	18.8392
2.464	19.3212
2.458	19.875
2.452	20.2039
2.446	20.5889
2.44	20.8764
2.434	21.1656
2.428	21.311
2.422	21.8092
2.416	22.1063
2.41	22.457
2.404	22.9085
2.398	23.1678
2.392	23.249
2.386	23.7601
2.38	24.7713
2.374	26.3993
2.368	27.9992
2.362	29.4873
2.356	30.7275
2.35	31.9166
2.344	33.0408
2.338	33.7211
2.332	33.6353
2.326	32.4151
2.32	30.656
2.314	29.3646
2.308	29.9014
2.302	31.617
2.296	33.3921
2.29	34.925
2.284	36.8938
2.278	39.183
2.272	41.0713
2.266	42.3664
2.26	43.3733
2.254	44.1043
2.248	44.6987
2.242	45.0397
2.236	45.2914
2.23	45.4255
2.224	45.5711
2.218	45.9298
2.212	46.4693
2.206	47.0387
2.2	47.3947
2.194	47.6834
2.188	47.8182
2.182	48.1079
2.176	48.3607
2.17	48.6367
2.164	48.8444
2.158	48.8718
2.152	48.9187
2.146	48.9359
2.14	49.0364
2.134	48.9961
2.128	48.7286
2.122	48.3918
2.116	47.8697
2.11	47.4447
2.104	46.9497
2.098	46.4018
2.092	45.9765
2.086	45.6648
2.08	45.2699
2.074	44.9884
2.068	44.641
2.062	44.2931
2.056	44.0024
2.05	43.6974
2.044	43.1497
2.038	42.5626
2.032	41.6579
2.026	40.5803
2.02	39.377
2.014	38.0338
2.008	36.6274
2.002	35.1848
1.996	33.8229
1.99	32.4935
1.984	31.5406
1.978	30.9293
1.972	30.4672
1.966	30.2275
1.96	29.9703
1.954	29.6662
1.948	29.1365
1.942	28.2547
1.936	26.3763
1.93	23.0915
1.924	19.08
1.918	16.5421
1.912	16.1663
1.906	17.0699
1.9	20.5395
1.894	26.6481
1.888	33.8764
1.882	40.4273
1.876	46.5868
1.87	52.4153
1.864	56.1385
1.858	58.4528
1.852	60.0742
1.846	61.0243
1.84	61.84
1.834	62.4005
1.828	62.6959
1.822	62.9227
1.816	63.0005
1.81	62.9718
1.804	62.8789
1.798	62.8982
1.792	62.7521
1.786	62.9893
1.78	63.3308
1.774	63.7672
1.768	64.2176
1.762	64.6236
1.756	65.1232
1.75	65.5158
1.744	65.9574
1.738	66.3765
1.732	66.7096
1.726	67.0755
1.72	67.5293
1.714	67.9549
1.708	68.4198
1.702	68.6993
1.696	68.9486
1.69	69.0792
1.684	69.1777
1.678	69.2314
1.672	69.189
1.666	69.189
1.66	69.1951
1.654	69.1937
1.648	69.0309
1.642	68.9815
1.636	68.8736
1.63	68.7121
1.624	68.5257
1.618	68.3585
1.612	68.2152
1.606	68.0683
1.6	67.8636
1.594	67.5865
1.588	67.3333
1.582	66.9448
1.576	66.6581
1.57	66.2217
1.564	65.7599
1.558	65.3152
1.552	64.7492
1.546	64.0911
1.54	63.398
1.534	62.8883
1.528	62.3679
1.522	61.745
1.516	61.0835
1.51	60.2803
1.504	59.3147
1.498	58.1724
1.492	56.8939
1.486	55.5926
1.48	53.9304
1.474	52.2421
1.468	51.3929
1.462	51.1202
1.456	50.719
1.45	49.4353
1.444	48.3364
1.438	48.5348
1.432	48.6241
1.426	48.0062
1.42	46.8638
1.414	46.6766
1.408	48.9727
1.402	53.6282
1.396	58.2122
1.39	55.2905
1.384	58.8867
1.378	68.1922
1.372	71.3468
1.366	73.03
1.36	73.931
1.354	74.514
1.348	75.1525
1.342	75.9933
1.336	76.9376
1.33	77.9081
1.324	78.6804
1.318	79.3175
1.312	79.9331
1.306	80.3998
1.3	80.6678
1.294	80.8204
1.288	81.1773
1.282	81.2914
1.276	81.2171
1.27	81.3962
1.264	81.4894
1.258	81.6677
1.252	81.6173
1.246	81.5989
1.24	81.6066
1.234	81.4973
1.228	81.5556
1.222	81.5824
1.216	81.5529
1.21	81.3876
1.204	81.2696
1.198	81.1439
1.192	81.1138
1.186	81.1758
1.18	81.0804
1.174	80.5925
1.168	79.9354
1.162	80.0407
1.156	79.9495
1.15	80.5843
1.144	81.8344
1.138	82.7959
1.132	83.2784
1.126	83.6177
1.12	83.7764
1.114	83.9661
1.108	83.9775
1.102	83.9579
1.096	84.0941
1.09	84.2099
1.084	84.1873
1.078	84.1974
1.072	84.2896
1.066	84.2815
1.06	84.2002
1.054	84.2663
1.048	84.2254
1.042	84.2112
1.036	84.1246
1.03	84.0742
1.024	84.0141
1.018	83.8926
1.012	83.8684
1.006	83.7009
1	83.5233
0.994	83.2924
0.988	83.0621
0.982	82.9791
0.976	82.8969
0.97	82.694
0.964	82.6781
0.958	83.0534
0.952	83.4021
0.946	82.8037
0.94	83.9066
0.934	84.1767
0.928	84.2737
0.922	84.3649
0.916	84.3772
0.91	84.3945
0.904	84.4366
0.898	84.5292
0.892	84.5837
0.886	84.5791
0.88	84.5589
0.874	84.5344
0.868	84.4931
0.862	84.5537
0.856	84.4481
0.85	84.5714
0.844	84.5384
0.838	84.551
0.832	84.5632
0.826	84.6234
0.82	84.6576
0.814	84.6642
0.808	84.6654
0.802	84.6289
0.796	84.5663
0.79	84.5568
0.784	84.5212
0.778	84.4466
0.772	84.411
0.766	84.4017
0.76	84.3104
0.754	84.3108
0.748	84.2193
0.742	84.1776
0.736	84.1441
0.73	84.1288
0.724	84.0475
0.718	84.0615
0.712	83.9702
0.706	83.9269
0.7	83.8593
0.694	83.7918
0.688	83.6962
0.682	83.6151
0.676	83.512
0.67	83.4005
0.664	83.2805
0.658	83.1377
0.652	83.0116
0.646	82.8824
0.64	82.7511
0.634	82.6076
0.628	82.4492
0.622	82.3115
0.616	82.1437
0.61	81.9552
0.604	81.7584
0.598	81.5734
0.592	81.3718
0.586	81.1143
0.58	80.8212
0.574	80.5525
0.568	80.2562
0.562	79.9613
0.556	79.6035
0.55	79.2938
0.544	79.0079
0.538	78.689
0.532	78.3811
0.526	78.0384
0.52	77.6792
0.514	77.3146
0.508	76.9038
0.502	76.4808
0.496	76.0502
0.49	75.5978
0.484	75.048
0.478	74.6139
0.472	74.1437
0.466	73.6261
0.46	73.1401
0.454	72.6007
0.448	72.041
0.442	71.5255
0.436	71.0054
0.43	70.5003
0.424	70.0179
0.418	69.6164
0.412	69.2763
0.406	68.9445
0.4	68.5759
