Name: Cummingtonite (Mg,Fe^2+)_7Si_8O_22(OH)_2
Type: Mineral
Class: Silicates
Subclass: Inosilicates
Particle Size: 125-500um
Sample No.: IN-6A
Owner: JPL
Wavelength Range: VNIR-SWIR
Origin: USA, South Dakota
Measurement: Hemispherical reflectance
X Units: Wavelength (micrometers)
Y Units: Reflectance (percent)
wavelength	value
0.4	4.66
0.403	4.42
0.406	4.47
0.409	4.46
0.412	4.53
0.415	4.53
0.418	4.58
0.421	4.46
0.424	4.63
0.427	4.64
0.43	4.68
0.433	4.63
0.436	4.65
0.439	4.57
0.442	4.76
0.445	4.76
0.448	4.75
0.451	4.75
0.454	4.73
0.457	4.82
0.46	4.87
0.463	4.81
0.466	4.87
0.469	4.79
0.472	4.9
0.475	4.79
0.478	4.86
0.481	4.85
0.484	4.92
0.487	4.89
0.49	4.78
0.493	4.98
0.496	5.08
0.499	5.06
0.502	4.99
0.505	4.98
0.508	4.97
0.511	5
0.514	5.13
0.517	5.02
0.52	5.14
0.523	5.13
0.526	5.23
0.529	5.24
0.532	5.2
0.535	5.18
0.538	5.14
0.541	5.12
0.544	5.17
0.547	5.15
0.55	5.05
0.553	5.09
0.556	5.16
0.559	5.29
0.562	5.25
0.565	5.29
0.568	5.28
0.571	5.35
0.574	5.26
0.577	5.22
0.58	5.22
0.583	5.21
0.586	5.35
0.589	5.24
0.592	5.18
0.595	5.11
0.598	5.15
0.601	5.22
0.604	5.24
0.607	5.18
0.61	5.11
0.613	5.15
0.616	5.11
0.619	5.15
0.622	5.15
0.625	5.16
0.628	5.05
0.631	5.1
0.634	5.16
0.637	5.17
0.64	5.05
0.643	5.04
0.646	5.15
0.649	5.04
0.652	5.06
0.655	5.04
0.658	4.98
0.661	4.98
0.664	5
0.667	5.03
0.67	5.1
0.673	4.98
0.676	4.95
0.679	5.04
0.682	5.44
0.685	5.15
0.688	5.11
0.691	5.15
0.694	4.98
0.697	4.99
0.7	4.96
0.703	4.97
0.706	4.92
0.709	4.99
0.712	5.09
0.715	5.03
0.718	4.99
0.721	4.97
0.724	5.03
0.727	5.03
0.73	5.21
0.733	5.32
0.736	5.25
0.739	5.27
0.742	4.96
0.745	5.08
0.748	5.03
0.751	4.96
0.754	4.97
0.757	4.97
0.76	5.03
0.763	4.97
0.766	5.03
0.769	5.02
0.772	4.96
0.775	5.09
0.778	5.03
0.781	4.96
0.784	4.97
0.787	4.95
0.79	5.02
0.793	5.08
0.796	5.03
0.799	4.98
0.808	5.21
0.82	5.09
0.832	4.98
0.844	4.98
0.856	4.8
0.868	4.63
0.88	4.57
0.892	4.39
0.904	4.34
0.916	4.28
0.928	4.28
0.94	4.17
0.952	4.06
0.964	4.1
0.976	4.04
0.988	4.05
1	4.11
1.012	4.17
1.024	4.16
1.036	4.29
1.048	4.38
1.06	4.52
1.072	4.63
1.084	4.63
1.096	4.67
1.108	4.69
1.12	4.71
1.132	4.76
1.144	4.71
1.156	4.75
1.168	4.74
1.18	4.74
1.192	4.83
1.204	4.7
1.216	4.74
1.228	4.76
1.24	4.89
1.252	4.96
1.264	4.97
1.276	4.89
1.288	4.96
1.3	4.95
1.312	5.13
1.324	5.18
1.336	5.13
1.348	5.09
1.36	5.16
1.372	5.16
1.384	5.2
1.396	5.19
1.408	5.25
1.42	5.38
1.432	5.47
1.444	5.53
1.456	5.54
1.468	5.58
1.48	5.6
1.492	5.64
1.504	5.65
1.516	5.61
1.528	5.64
1.54	5.62
1.552	5.69
1.564	5.7
1.576	5.76
1.588	5.81
1.6	5.76
1.612	5.77
1.624	5.81
1.636	5.81
1.648	5.88
1.66	5.8
1.672	5.8
1.684	5.87
1.696	5.85
1.708	5.89
1.72	5.87
1.732	5.86
1.744	5.9
1.756	5.9
1.768	5.92
1.78	5.9
1.792	5.91
1.804	5.94
1.816	5.88
1.828	5.83
1.84	5.92
1.852	5.94
1.864	5.96
1.876	5.88
1.888	5.9
1.9	5.89
1.912	5.82
1.924	5.89
1.936	5.85
1.948	5.79
1.96	5.81
1.972	5.86
1.984	5.82
1.996	5.82
2.008	5.79
2.02	5.79
2.032	5.8
2.044	5.85
2.056	5.8
2.068	5.77
2.08	5.71
2.092	5.67
2.104	5.68
2.116	5.63
2.128	5.63
2.14	5.62
2.152	5.52
2.164	5.46
2.176	5.45
2.188	5.45
2.2	5.35
2.212	5.35
2.224	5.31
2.236	5.24
2.248	5.25
2.26	5.05
2.272	5.1
2.284	4.99
2.296	4.91
2.308	4.75
2.32	4.74
2.332	4.71
2.344	4.77
2.356	4.72
2.368	4.65
2.38	4.71
2.392	4.7
2.404	4.75
2.416	4.74
2.428	4.74
2.44	4.68
2.452	4.62
2.464	4.68
2.476	4.62
2.488	4.63
2.5	4.62
