Name: Magnetite Fe^2+Fe_2^3+O_4
Type: Mineral
Class: Oxides
Particle Size: 125-500um
Sample No.: O-4A
Owner: JPL
Origin: Canada, Ontario, Haliburton County, Wilberforce.
Measurement: Hemispherical reflectance
X Units: Wavelength (micrometers)
Y Units: Reflectance (percent)
wavelength	value
2.5	10.5301
2.494	10.3229
2.488	10.334
2.482	10.438
2.476	10.5142
2.47	10.3651
2.464	10.3278
2.458	10.233
2.452	10.2755
2.446	10.3395
2.44	10.3055
2.434	10.2205
2.428	10.2602
2.422	10.3083
2.416	10.2279
2.41	10.2315
2.404	10.2453
2.398	10.2835
2.392	10.2181
2.386	10.2341
2.38	10.258
2.374	10.183
2.368	10.2296
2.362	10.2031
2.356	10.1861
2.35	10.1403
2.344	10.146
2.338	10.1151
2.332	10.1265
2.326	10.0673
2.32	10.071
2.314	10.0601
2.308	10.0463
2.302	9.99171
2.296	9.99815
2.29	9.96724
2.284	9.89026
2.278	9.86045
2.272	9.93044
2.266	9.83027
2.26	9.91001
2.254	9.75767
2.248	9.75202
2.242	9.68734
2.236	9.7427
2.23	9.63162
2.224	9.63206
2.218	9.70925
2.212	9.7173
2.206	9.6676
2.2	9.5596
2.194	9.55548
2.188	9.61828
2.182	9.54891
2.176	9.5913
2.17	9.5861
2.164	9.59278
2.158	9.52345
2.152	9.63588
2.146	9.52353
2.14	9.53466
2.134	9.55089
2.128	9.45677
2.122	9.41494
2.116	9.35278
2.11	9.30118
2.104	9.27798
2.098	9.23586
2.092	9.21408
2.086	9.22842
2.08	9.13005
2.074	9.13207
2.068	9.18208
2.062	9.15324
2.056	9.13772
2.05	9.12873
2.044	9.08757
2.038	9.09991
2.032	9.07729
2.026	9.06763
2.02	9.06828
2.014	9.07227
2.008	8.97678
2.002	9.01439
1.996	8.98084
1.99	8.93226
1.984	8.88336
1.978	8.91295
1.972	8.83507
1.966	8.94146
1.96	8.87987
1.954	8.80341
1.948	8.81505
1.942	8.8365
1.936	8.80089
1.93	8.84006
1.924	8.75672
1.918	8.80187
1.912	8.68416
1.906	8.70098
1.9	8.67768
1.894	8.66506
1.888	8.58824
1.882	8.63285
1.876	8.58883
1.87	8.49521
1.864	8.54823
1.858	8.48245
1.852	8.45968
1.846	8.46252
1.84	8.43596
1.834	8.41943
1.828	8.36004
1.822	8.31583
1.816	8.31364
1.81	8.31497
1.804	8.27436
1.798	8.24217
1.792	8.24659
1.786	8.17204
1.78	8.07894
1.774	8.08963
1.768	8.07212
1.762	8.03964
1.756	7.99412
1.75	7.95778
1.744	7.987
1.738	7.89072
1.732	7.92584
1.726	7.81807
1.72	7.83925
1.714	7.82713
1.708	7.81475
1.702	7.71938
1.696	7.70639
1.69	7.64948
1.684	7.70002
1.678	7.61354
1.672	7.58752
1.666	7.53954
1.66	7.5611
1.654	7.47455
1.648	7.40764
1.642	7.4755
1.636	7.47143
1.63	7.38944
1.624	7.33843
1.618	7.32951
1.612	7.2748
1.606	7.24147
1.6	7.18153
1.594	7.15448
1.588	7.15168
1.582	7.14888
1.576	7.08776
1.57	7.04546
1.564	7.0541
1.558	6.95478
1.552	6.98824
1.546	6.93537
1.54	6.90395
1.534	6.86731
1.528	6.82139
1.522	6.85564
1.516	6.84295
1.51	6.74634
1.504	6.74664
1.498	6.68639
1.492	6.64404
1.486	6.60619
1.48	6.61895
1.474	6.54574
1.468	6.5266
1.462	6.56302
1.456	6.497
1.45	6.43559
1.444	6.40742
1.438	6.35641
1.432	6.32938
1.426	6.37099
1.42	6.218
1.414	6.31646
1.408	6.26465
1.402	6.28129
1.396	6.18553
1.39	6.19615
1.384	6.14312
1.378	6.16846
1.372	6.15256
1.366	6.05659
1.36	6.02887
1.354	6.01517
1.348	5.93396
1.342	5.89811
1.336	5.86395
1.33	5.78421
1.324	5.87114
1.318	5.78799
1.312	5.70304
1.306	5.67855
1.3	5.73986
1.294	5.62922
1.288	5.57822
1.282	5.64168
1.276	5.49279
1.27	5.52806
1.264	5.47865
1.258	5.42295
1.252	5.42937
1.246	5.3894
1.24	5.32962
1.234	5.30429
1.228	5.28766
1.222	5.25766
1.216	5.24783
1.21	5.22703
1.204	5.14729
1.198	5.19352
1.192	5.10933
1.186	5.17294
1.18	5.0671
1.174	5.16128
1.168	5.05962
1.162	5.01108
1.156	5.03093
1.15	4.9874
1.144	4.95331
1.138	4.92955
1.132	4.92246
1.126	4.89848
1.12	4.8674
1.114	4.81131
1.108	4.85734
1.102	4.89775
1.096	4.80253
1.09	4.81104
1.084	4.77812
1.078	4.84049
1.072	4.80334
1.066	4.75729
1.06	4.80987
1.054	4.80005
1.048	4.80999
1.042	4.83573
1.036	4.7342
1.03	4.78773
1.024	4.77191
1.018	4.79823
1.012	4.83875
1.006	4.7531
1	4.77503
0.994	4.80513
0.988	4.86989
0.982	4.76881
0.976	4.91936
0.97	4.8342
0.964	4.92318
0.958	4.92177
0.952	4.91219
0.946	4.92843
0.94	4.9434
0.934	5.02603
0.928	4.94999
0.922	4.9755
0.916	5.00867
0.91	5.10796
0.904	5.08809
0.898	5.08948
0.892	5.15063
0.886	5.19977
0.88	5.15164
0.874	5.24763
0.868	5.26283
0.862	5.32792
0.856	5.69665
0.85	5.72223
0.844	5.75945
0.838	5.78422
0.832	5.80915
0.826	5.84307
0.82	5.86695
0.814	5.9077
0.808	5.93539
0.802	5.96356
0.796	5.98994
0.79	6.02349
0.784	6.06199
0.778	6.10402
0.772	6.12899
0.766	6.15637
0.76	6.18821
0.754	6.21532
0.748	6.24868
0.742	6.28391
0.736	6.31304
0.73	6.34234
0.724	6.36843
0.718	6.39821
0.712	6.42423
0.706	6.45042
0.7	6.47753
0.694	6.49423
0.688	6.52119
0.682	6.54051
0.676	6.55686
0.67	6.57506
0.664	6.59248
0.658	6.60734
0.652	6.61551
0.646	6.6258
0.64	6.63126
0.634	6.63477
0.628	6.6353
0.622	6.63519
0.616	6.63624
0.61	6.63309
0.604	6.62974
0.598	6.62831
0.592	6.62959
0.586	6.62747
0.58	6.62409
0.574	6.61838
0.568	6.61208
0.562	6.60277
0.556	6.59996
0.55	6.59303
0.544	6.58554
0.538	6.57654
0.532	6.57731
0.526	6.57512
0.52	6.57908
0.514	6.5871
0.508	6.59275
0.502	6.6045
0.496	6.62115
0.49	6.63797
0.484	6.65667
0.478	6.65951
0.472	6.67206
0.466	6.69162
0.46	6.71895
0.454	6.75309
0.448	6.80302
0.442	6.854
0.436	6.90878
0.43	6.95345
0.424	6.99899
0.418	7.04284
0.412	7.0919
0.406	7.14101
0.4	7.19303
