Name: Rhyolite
Type: Rock
Class: Igneous
Subclass: Felsic
Particle Size: Solid surface
Sample No.: Ward07.txt
Owner: JPL
Origin: Ward's Collection of American Rocks.  Sample locality - Castle Rock, Douglas County, Colorado.
Description: A pinkish rock with scattered phenocrysts of glassy quartz
Measurement: Hemispherical reflectance
X Units: Wavelength (micrometers)
Y Units: Reflectance (percent)
wavelength	value
15.3871	2.05052
15.118	2.38566
14.8581	2.01438
14.6069	2.17784
14.3642	2.27502
14.1293	2.73381
13.9021	2.65189
13.682	2.15001
13.4687	2.56136
13.2621	3.26405
13.0616	3.47122
12.8672	3.2784
12.6784	3.45878
12.4951	3.41562
12.317	3.61404
12.1439	3.5848
11.9757	4.63039
11.812	4.65568
11.6527	4.45115
11.4977	4.9926
11.3468	5.71975
11.1997	5.32198
11.0564	6.37852
10.9168	6.32511
10.7806	6.99814
10.6478	6.97757
10.5182	7.6449
10.3917	7.7722
10.2683	8.19116
10.1477	9.02423
10.0299	9.40881
9.9148	9.69937
9.8024	10.0384
9.6925	10.1061
9.585	10.0765
9.4798	10.2529
9.377	11.0408
9.2763	12.7903
9.1778	15.3409
9.0814	15.9982
8.987	16.211
8.8945	15.3569
8.8039	15.5108
8.7151	15.1302
8.6281	14.8418
8.5428	14.0779
8.4592	12.7753
8.3772	11.039
8.2967	11.889
8.2179	11.1436
8.1404	9.86168
8.0645	7.96294
7.9899	6.39562
7.9167	5.33471
7.8449	4.51942
7.7743	3.55786
7.705	2.9515
7.6369	2.62137
7.57	2.517
7.5043	2.31013
7.4397	2.27823
7.3762	2.3307
7.3138	2.37139
7.2524	2.71569
7.1921	2.70033
7.1327	2.72189
7.0743	2.78161
7.0169	2.94646
6.9604	2.86198
6.9047	3.06603
6.85	3.49282
6.7962	3.50218
6.7431	3.89118
6.6909	3.93159
6.6395	3.99044
6.5889	4.39015
6.539	4.46354
6.49	4.41248
6.4416	4.61295
6.3939	4.74227
6.347	4.74584
6.3007	4.26998
6.2551	4.0896
6.2101	3.84239
6.1658	3.91823
6.1222	3.82568
6.0791	4.40585
6.0366	4.57911
5.9948	4.83523
5.9535	5.08037
5.9127	5.6893
5.8726	5.61935
5.8329	5.57021
5.7938	5.94086
5.7552	5.87317
5.7172	6.02772
5.6796	5.99428
5.6425	6.1701
5.6059	6.37722
5.5698	6.54084
5.5341	7.3278
5.4989	7.12407
5.4641	7.79873
5.4298	7.7693
5.3959	7.17152
5.3624	6.8828
5.3294	6.68315
5.2967	7.05003
5.2644	7.84214
5.2326	9.25708
5.2011	10.4804
5.17	11.2234
5.1392	11.3559
5.1088	11.8096
5.0788	11.5766
5.0491	11.5368
5.0198	11.6454
4.9908	12.0737
4.9622	12.4418
4.9338	13.6651
4.9058	15.6447
4.8781	17.2236
4.8508	18.5331
4.8237	19.7097
4.7969	20.6555
4.7704	21.2781
4.7443	21.7226
4.7184	22.3708
4.6927	23.0972
4.6674	23.208
4.6423	23.7817
4.6175	24.9565
4.593	26.1306
4.5687	26.5868
4.5447	27.4905
4.5209	28.5819
4.4974	28.8916
4.4741	29.7995
4.451	30.2198
4.4282	30.4267
4.4057	30.6459
4.3833	31.3827
4.3612	33.0626
4.3393	33.8494
4.3176	34.9194
4.2962	36.1958
4.2749	36.9531
4.2539	37.8931
4.233	38.2007
4.2124	38.5751
4.192	38.9663
4.1717	39.5269
4.1517	39.8912
4.1319	40.3311
4.1122	40.4253
4.0927	40.8556
4.0734	41.1413
4.0543	41.451
4.0354	41.5874
4.0166	41.4372
3.9981	41.3201
3.9796	41.8553
3.9614	41.6877
3.9433	42.0674
3.9254	41.6282
3.9077	41.9808
3.8901	42.2452
3.8726	42.038
3.8554	42.1578
3.8382	42.5324
3.8213	42.4113
3.8045	42.6967
3.7878	42.2837
3.7713	42.6684
3.7549	42.0332
3.7386	42.5095
3.7225	42.6111
3.7066	42.1043
3.6907	42.574
3.675	42.882
3.6595	42.7493
3.644	42.3064
3.6287	42.0406
3.6136	42.109
3.5985	41.9935
3.5836	41.5717
3.5688	41.5857
3.5541	41.5142
3.5396	40.6582
3.5251	40.7697
3.5108	40.031
3.4966	38.8614
3.4825	38.7976
3.4685	38.2608
3.4547	38.5567
3.4409	38.0498
3.4273	37.3436
3.4137	36.6286
3.4003	36.3566
3.387	36.3962
3.3738	35.9705
3.3606	36.8371
3.3476	37.1145
3.3347	37.1424
3.3219	36.8887
3.3092	36.5742
3.2965	36.7715
3.284	36.4398
3.2716	36.2069
3.2593	35.2634
3.247	35.1493
3.2348	34.5367
3.2228	34.3875
3.2108	33.6804
3.1989	33.2107
3.1871	33.174
3.1754	32.2107
3.1638	32.3405
3.1523	32.0774
3.1408	31.12
3.1294	30.663
3.1181	30.6132
3.1069	30.641
3.0958	29.8611
3.0848	29.4841
3.0738	28.9591
3.0629	28.5738
3.0521	28.161
3.0413	28.6845
3.0307	28.6405
3.0201	27.8519
3.0096	28.0258
2.9991	27.6772
2.9887	27.9532
2.9784	27.551
2.9682	28.0918
2.9581	27.1271
2.948	26.5619
2.9379	27.023
2.928	27.2144
2.9181	26.554
2.9083	27.3218
2.8985	26.1385
2.8888	28.1005
2.8792	27.1687
2.8697	27.3039
2.8602	27.0553
2.8507	28.3099
2.8413	26.8825
2.832	28.1488
2.8228	28.6722
2.8136	28.4974
2.8045	28.183
2.7954	28.8483
2.7864	29.4318
2.7774	31.3552
2.7685	29.8056
2.7597	31.4437
2.7509	32.8663
2.7422	35.1234
2.7335	36.3538
2.7249	39.0822
2.7163	41.4385
2.7078	43.741
2.6994	45.4597
2.691	46.6275
2.6826	48.3908
2.6743	48.983
2.666	49.6865
2.6578	49.7405
2.6497	49.732
2.6416	50.54
2.6336	49.0766
2.6256	50.0001
2.6176	50.2104
2.6097	50.4774
2.6018	50.4458
2.594	50.194
2.5863	50.1843
2.5785	49.7366
2.5709	50.4708
2.5633	50.7799
2.5557	50.3651
2.5481	49.96
2.5406	50.0394
2.5332	50.2626
2.5258	50.2782
2.5184	50.1931
2.5111	50.0006
2.5038	49.6296
2.4966	50.1309
2.4894	50.0982
2.4823	50.466
2.4752	50.1386
2.4681	50.154
2.4611	49.678
2.4541	49.8525
2.4471	51.2538
2.4402	49.2304
2.4333	49.1558
2.4265	50.149
2.4197	49.8895
2.413	49.8867
2.4063	49.0058
2.3996	49.3691
2.3929	50.2141
2.3863	51.0502
2.3798	50.0451
2.3732	49.7124
2.3667	50.1078
2.3603	49.4229
2.3538	48.6256
2.3474	50.1132
2.3411	49.6822
2.3347	49.3255
2.3285	49.7024
2.3222	48.9853
2.316	49.9597
2.3098	48.1168
2.3036	49.967
2.2975	49.5391
2.2914	48.5479
2.2854	49.1486
2.2793	48.2731
2.2733	48.8794
2.2674	49.467
2.2614	48.4923
2.2555	48.2449
2.2497	48.459
2.2438	48.1676
2.238	48.858
2.2322	47.718
2.2265	47.6118
2.2208	48.1615
2.2151	47.5711
2.2094	47.2926
2.2038	48.3978
2.1982	47.033
2.1926	47.579
2.187	48.0507
2.1815	47.664
2.176	46.9448
2.1706	49.2462
2.1651	46.8279
2.1597	46.5651
2.1543	46.4242
2.149	44.6497
2.1436	46.6613
2.1383	45.7626
2.1331	44.4596
2.1278	46.353
2.1226	46.255
2.1174	46.7733
2.1122	46.9608
2.1071	47.6743
2.1019	46.8285
2.0968	46.0498
2.0918	46.5289
2.0867	46.1618
2.0817	44.8488
2.0767	46.9426
2.0717	45.1358
2.0667	44.7104
2.0618	46.8606
2.0569	45.044
2.052	44.2653
2.0472	43.3494
2.0423	45.7404
2.0375	44.5789
2.0327	45.3517
2.028	45.8482
2.0232	42.6959
2.0185	44.7568
2.0138	45.0053
2.0091	45.5805
2.0044	45.8764
1.9998	45.2566
