Name: Chlorite
Type: Mineral
Class: Silicates
Subclass: Phyllosilicates
Particle Size: 45-125um
Sample No.: PS-12F
Owner: JPL
Origin: USA, New Mexico.
Measurement: Hemispherical reflectance
X Units: Wavelength (micrometers)
Y Units: Reflectance (percent)
wavelength	value
2.5	32.4054
2.494	32.756
2.488	33.2892
2.482	33.7011
2.476	34.2881
2.47	35.0898
2.464	35.6289
2.458	36.1767
2.452	36.4966
2.446	36.7622
2.44	36.8979
2.434	36.9657
2.428	37.0849
2.422	37.0251
2.416	37.0649
2.41	36.9847
2.404	36.7832
2.398	36.2937
2.392	35.4974
2.386	34.2835
2.38	32.9096
2.374	31.565
2.368	30.4724
2.362	29.7107
2.356	29.4823
2.35	29.7146
2.344	30.2837
2.338	31.17
2.332	32.0964
2.326	33.0013
2.32	33.8489
2.314	34.7059
2.308	35.4932
2.302	36.1206
2.296	36.5981
2.29	36.6885
2.284	36.3946
2.278	35.4731
2.272	34.1731
2.266	32.6243
2.26	31.8959
2.254	32.6854
2.248	35.0703
2.242	38.1429
2.236	41.1439
2.23	43.2375
2.224	44.7784
2.218	45.8617
2.212	46.5718
2.206	47.1289
2.2	47.6524
2.194	48.1812
2.188	48.4213
2.182	48.7046
2.176	48.8839
2.17	48.9788
2.164	49.1651
2.158	49.2543
2.152	49.345
2.146	49.4297
2.14	49.29
2.134	49.2454
2.128	49.1089
2.122	49.0878
2.116	49.0429
2.11	48.9264
2.104	48.7293
2.098	48.6161
2.092	48.3875
2.086	48.1894
2.08	47.9736
2.074	47.6616
2.068	47.4254
2.062	47.1097
2.056	46.7398
2.05	46.0781
2.044	45.6083
2.038	44.8894
2.032	44.1282
2.026	43.487
2.02	42.8833
2.014	42.5128
2.008	42.2546
2.002	42.2487
1.996	42.3349
1.99	42.5054
1.984	42.8084
1.978	43.0762
1.972	43.1803
1.966	43.2428
1.96	43.3299
1.954	43.3785
1.948	43.5774
1.942	43.611
1.936	43.511
1.93	43.491
1.924	43.2395
1.918	43.0995
1.912	42.8892
1.906	42.7805
1.9	42.7069
1.894	42.6783
1.888	42.5561
1.882	42.4419
1.876	42.4886
1.87	42.3769
1.864	42.4315
1.858	42.3274
1.852	42.2931
1.846	42.2325
1.84	42.065
1.834	41.918
1.828	41.7947
1.822	41.6768
1.816	41.4921
1.81	41.2614
1.804	41.1207
1.798	40.9481
1.792	40.7244
1.786	40.5382
1.78	40.2884
1.774	40.0127
1.768	39.7938
1.762	39.5819
1.756	39.2897
1.75	39.0206
1.744	38.7494
1.738	38.5062
1.732	38.2277
1.726	38.0085
1.72	37.6386
1.714	37.3643
1.708	37.0966
1.702	36.7752
1.696	36.4918
1.69	36.1155
1.684	35.7728
1.678	35.495
1.672	35.111
1.666	34.8709
1.66	34.5239
1.654	34.1181
1.648	33.8187
1.642	33.5178
1.636	33.194
1.63	32.7891
1.624	32.4547
1.618	32.062
1.612	31.7053
1.606	31.4434
1.6	30.9909
1.594	30.7267
1.588	30.3448
1.582	30.0648
1.576	29.666
1.57	29.4176
1.564	29.0469
1.558	28.7839
1.552	28.5506
1.546	28.2406
1.54	28.0745
1.534	27.7837
1.528	27.6088
1.522	27.3444
1.516	27.2299
1.51	26.9716
1.504	26.7414
1.498	26.4751
1.492	26.2378
1.486	25.9124
1.48	25.6929
1.474	25.358
1.468	25.0201
1.462	24.7025
1.456	24.3273
1.45	24.0001
1.444	23.8045
1.438	23.6386
1.432	23.4768
1.426	23.0977
1.42	21.7188
1.414	19.6018
1.408	20.2536
1.402	21.2385
1.396	21.9245
1.39	21.9754
1.384	21.8128
1.378	21.4391
1.372	21.1073
1.366	20.8227
1.36	20.5146
1.354	20.2189
1.348	19.8683
1.342	19.557
1.336	19.2651
1.33	18.8946
1.324	18.5661
1.318	18.2788
1.312	17.9687
1.306	17.7235
1.3	17.3314
1.294	17.045
1.288	16.8018
1.282	16.5352
1.276	16.201
1.27	15.9438
1.264	15.6348
1.258	15.3685
1.252	15.0627
1.246	14.8638
1.24	14.584
1.234	14.3129
1.228	14.1065
1.222	13.8772
1.216	13.6138
1.21	13.4412
1.204	13.2178
1.198	13.0462
1.192	12.8218
1.186	12.6893
1.18	12.4748
1.174	12.3423
1.168	12.2101
1.162	12.0438
1.156	11.9594
1.15	11.753
1.144	11.7208
1.138	11.6089
1.132	11.5472
1.126	11.3718
1.12	11.286
1.114	11.338
1.108	11.1755
1.102	11.168
1.096	11.1471
1.09	11.1444
1.084	11.0797
1.078	10.951
1.072	11.0289
1.066	10.9638
1.06	11.0532
1.054	11.0091
1.048	11.0619
1.042	11.0115
1.036	11.0198
1.03	10.9609
1.024	10.9753
1.018	10.9295
1.012	10.9701
1.006	10.8437
1	10.8227
0.994	10.847
0.988	10.7349
0.982	10.6629
0.976	10.5499
0.97	10.5367
0.964	10.4542
0.958	10.3294
0.952	10.2365
0.946	10.1437
0.94	10.0689
0.934	10.0005
0.928	9.8688
0.922	9.83793
0.916	9.78867
0.91	9.73725
0.904	9.68836
0.898	9.68713
0.892	9.70825
0.886	9.7199
0.88	9.71197
0.874	9.77862
0.868	9.82851
0.862	9.87992
0.856	10.2459
0.85	10.3138
0.844	10.3891
0.838	10.4733
0.832	10.5337
0.826	10.6236
0.82	10.6879
0.814	10.749
0.808	10.7847
0.802	10.8127
0.796	10.8123
0.79	10.809
0.784	10.7961
0.778	10.7574
0.772	10.7285
0.766	10.6956
0.76	10.6568
0.754	10.6306
0.748	10.6059
0.742	10.5906
0.736	10.5815
0.73	10.58
0.724	10.5856
0.718	10.61
0.712	10.6436
0.706	10.6865
0.7	10.7501
0.694	10.8117
0.688	10.8979
0.682	10.9888
0.676	11.0865
0.67	11.1954
0.664	11.3073
0.658	11.4348
0.652	11.5555
0.646	11.686
0.64	11.8168
0.634	11.9565
0.628	12.0928
0.622	12.2325
0.616	12.3715
0.61	12.5124
0.604	12.6519
0.598	12.7957
0.592	12.9249
0.586	13.0514
0.58	13.1613
0.574	13.2556
0.568	13.3232
0.562	13.3613
0.556	13.3679
0.55	13.3367
0.544	13.2683
0.538	13.1584
0.532	13.036
0.526	12.8967
0.52	12.7247
0.514	12.5017
0.508	12.2376
0.502	11.9317
0.496	11.5916
0.49	11.3833
0.484	11.1315
0.478	10.84
0.472	10.5611
0.466	10.3232
0.46	10.1133
0.454	9.94335
0.448	9.77887
0.442	9.52226
0.436	9.20903
0.43	8.88578
0.424	8.55893
0.418	8.27568
0.412	8.02778
0.406	7.82529
0.4	7.64791
