Name: Scheelite CaWO_4
Type: Mineral
Class: Tungstates
Particle Size: 125-500um
Sample No.: T-1A
Owner: JPL
Wavelength Range: VNIR-SWIR
Origin: USA, California, Kern County, Atolia
Measurement: Hemispherical reflectance
X Units: Wavelength (micrometers)
Y Units: Reflectance (percent)
wavelength	value
0.4	29.87
0.403	30.25
0.406	30.56
0.409	31.01
0.412	31.41
0.415	31.71
0.418	31.92
0.421	32.32
0.424	32.69
0.427	32.94
0.43	33.31
0.433	33.64
0.436	34.1
0.439	34.56
0.442	34.81
0.445	35.24
0.448	35.57
0.451	35.88
0.454	36.18
0.457	36.33
0.46	36.3
0.463	36.47
0.466	36.59
0.469	36.82
0.472	36.96
0.475	37.27
0.478	37.43
0.481	37.63
0.484	37.87
0.487	38.1
0.49	38.35
0.493	38.78
0.496	39.12
0.499	39.47
0.502	39.67
0.505	40.14
0.508	40.62
0.511	40.97
0.514	41.6
0.517	41.87
0.52	42.24
0.523	42.76
0.526	43.32
0.529	43.62
0.532	44.26
0.535	44.64
0.538	45.12
0.541	45.59
0.544	46.07
0.547	46.58
0.55	46.93
0.553	47.42
0.556	47.88
0.559	48.19
0.562	48.95
0.565	49.36
0.568	49.53
0.571	49.7
0.574	49.94
0.577	50.13
0.58	50.45
0.583	50.46
0.586	50.6
0.589	50.75
0.592	51.1
0.595	51.3
0.598	51.44
0.601	51.6
0.604	51.7
0.607	51.88
0.61	51.97
0.613	52.03
0.616	52.03
0.619	51.98
0.622	52.19
0.625	52.13
0.628	52.23
0.631	52.35
0.634	52.48
0.637	52.39
0.64	52.59
0.643	52.75
0.646	52.86
0.649	52.98
0.652	53.01
0.655	53.05
0.658	53.18
0.661	53.42
0.664	53.52
0.667	53.6
0.67	53.69
0.673	53.82
0.676	54.01
0.679	54.15
0.682	54.33
0.685	54.15
0.688	54.43
0.691	54.6
0.694	54.75
0.697	54.89
0.7	54.83
0.703	54.94
0.706	55.17
0.709	55.26
0.712	55.34
0.715	55.57
0.718	55.5
0.721	55.69
0.724	55.82
0.727	55.85
0.73	56
0.733	55.97
0.736	56.09
0.739	56.06
0.742	56.16
0.745	56.14
0.748	56.13
0.751	56.22
0.754	56.28
0.757	56.35
0.76	56.11
0.763	56.14
0.766	56.11
0.769	56.18
0.772	56.22
0.775	56.16
0.778	56
0.781	56.05
0.784	56.14
0.787	55.97
0.79	55.88
0.793	55.83
0.796	55.69
0.799	55.72
0.808	55.87
0.82	55.63
0.832	55.4
0.844	55.28
0.856	55.05
0.868	54.88
0.88	54.67
0.892	54.47
0.904	54.34
0.916	54.2
0.928	54.15
0.94	54.14
0.952	54.06
0.964	54.09
0.976	54.17
0.988	54.26
1	54.5
1.012	54.74
1.024	55
1.036	55.37
1.048	55.65
1.06	56.04
1.072	56.38
1.084	56.8
1.096	57.32
1.108	57.72
1.12	58.4
1.132	58.87
1.144	59.31
1.156	59.77
1.168	60.13
1.18	60.54
1.192	60.84
1.204	61.16
1.216	61.56
1.228	61.89
1.24	62.21
1.252	62.57
1.264	62.84
1.276	63.11
1.288	63.42
1.3	63.7
1.312	64.01
1.324	64.16
1.336	64.38
1.348	64.66
1.36	64.77
1.372	64.81
1.384	64.24
1.396	62.77
1.408	62.03
1.42	63.29
1.432	64.07
1.444	64.49
1.456	64.77
1.468	65.19
1.48	65.68
1.492	66.11
1.504	66.64
1.516	66.9
1.528	67.29
1.54	67.44
1.552	67.67
1.564	67.88
1.576	67.96
1.588	68.07
1.6	68.24
1.612	68.32
1.624	68.48
1.636	68.51
1.648	68.72
1.66	68.7
1.672	68.73
1.684	68.73
1.696	68.77
1.708	68.69
1.72	68.53
1.732	68.57
1.744	68.46
1.756	68.45
1.768	68.4
1.78	68.49
1.792	68.52
1.804	68.52
1.816	68.57
1.828	68.49
1.84	68.4
1.852	68.16
1.864	67.46
1.876	65.61
1.888	62.84
1.9	60.09
1.912	59.27
1.924	59.58
1.936	60.11
1.948	60.75
1.96	61.32
1.972	62.09
1.984	62.79
1.996	63.6
2.008	64.29
2.02	64.87
2.032	65.43
2.044	65.82
2.056	66.12
2.068	66.29
2.08	66.5
2.092	66.72
2.104	66.88
2.116	67.16
2.128	67.29
2.14	67.19
2.152	66.82
2.164	66.19
2.176	65.15
2.188	64.12
2.2	63.79
2.212	64.34
2.224	65.06
2.236	65.36
2.248	65.48
2.26	65.39
2.272	65.22
2.284	64.82
2.296	64.39
2.308	64.02
2.32	63.56
2.332	63.09
2.344	62.71
2.356	62.72
2.368	62.66
2.38	62.47
2.392	62.07
2.404	61.6
2.416	61.06
2.428	60.54
2.44	60.01
2.452	59.65
2.464	59.23
2.476	58.85
2.488	58.79
2.5	58.68
