Name: Serpentine
Type: Rock
Class: Metamorphic
Particle Size: Solid surface
Sample No.: Ward99.txt
Owner: JPL
Origin: Ward's Collection of American Rocks.  Sample locality - Cardiff, harford County, Maryland.  Collected by - JPL.
Description: A dark greenish gray serpentine rock with bright green areas
Measurement: Hemispherical reflectance
X Units: Wavelength (micrometers)
Y Units: Reflectance (percent)
wavelength	value
15.3871	15.4524
15.118	15.0019
14.8581	16.4662
14.6069	12.4456
14.3642	4.78962
14.1293	2.60383
13.9021	2.2085
13.682	1.7234
13.4687	1.84899
13.2621	1.89298
13.0616	2.04261
12.8672	3.13736
12.6784	3.09032
12.4951	3.41744
12.317	3.89756
12.1439	4.40044
11.9757	4.79455
11.812	5.2284
11.6527	5.96605
11.4977	6.54612
11.3468	7.77574
11.1997	9.60385
11.0564	9.67222
10.9168	9.66281
10.7806	10.899
10.6478	13.1315
10.5182	16.2436
10.3917	19.2764
10.2683	21.0966
10.1477	22.8626
10.0299	24.9608
9.9148	27.1996
9.8024	30.6532
9.6925	32.9925
9.585	35.849
9.4798	31.1497
9.377	22.9363
9.2763	18.5291
9.1778	16.9009
9.0814	14.069
8.987	11.0614
8.8945	8.83999
8.8039	7.55778
8.7151	6.37902
8.6281	4.69032
8.5428	3.43689
8.4592	2.92943
8.3772	2.68915
8.2967	2.59813
8.2179	2.56042
8.1404	2.84359
8.0645	2.6883
7.9899	2.7675
7.9167	3.18592
7.8449	3.30508
7.7743	3.33719
7.705	3.34007
7.6369	3.61181
7.57	3.56511
7.5043	3.68264
7.4397	3.89609
7.3762	4.0811
7.3138	4.2043
7.2524	4.45179
7.1921	4.71718
7.1327	5.0138
7.0743	5.78539
7.0169	7.23137
6.9604	7.65379
6.9047	7.8352
6.85	8.0527
6.7962	8.36862
6.7431	8.7688
6.6909	9.19265
6.6395	9.75175
6.5889	10.0878
6.539	10.4314
6.49	10.8659
6.4416	10.8048
6.3939	10.5858
6.347	9.85095
6.3007	8.40494
6.2551	5.88335
6.2101	4.52021
6.1658	3.90983
6.1222	3.67941
6.0791	3.26054
6.0366	3.12395
5.9948	3.27321
5.9535	3.06181
5.9127	3.07607
5.8726	3.17123
5.8329	3.22429
5.7938	3.29006
5.7552	3.33494
5.7172	3.32172
5.6796	3.39854
5.6425	3.59921
5.6059	3.53811
5.5698	3.6408
5.5341	3.58652
5.4989	3.68207
5.4641	3.68145
5.4298	3.86179
5.3959	3.91583
5.3624	4.10749
5.3294	4.25573
5.2967	4.33172
5.2644	4.45025
5.2326	4.58036
5.2011	4.60297
5.17	4.85084
5.1392	4.87103
5.1088	5.02526
5.0788	5.09308
5.0491	5.1435
5.0198	5.22155
4.9908	5.42854
4.9622	5.43044
4.9338	5.51442
4.9058	5.53458
4.8781	5.60913
4.8508	5.70893
4.8237	5.84464
4.7969	5.93001
4.7704	5.96762
4.7443	6.10842
4.7184	6.194
4.6927	6.27142
4.6674	6.34711
4.6423	6.36997
4.6175	6.29005
4.593	6.36142
4.5687	6.43386
4.5447	6.44182
4.5209	6.73062
4.4974	6.82231
4.4741	6.7991
4.451	6.85195
4.4282	6.93089
4.4057	7.01743
4.3833	6.94545
4.3612	7.11655
4.3393	7.29955
4.3176	7.22399
4.2962	7.42139
4.2749	7.3953
4.2539	7.48268
4.233	7.56288
4.2124	7.64041
4.192	7.54296
4.1717	7.78283
4.1517	7.71434
4.1319	7.7473
4.1122	7.88326
4.0927	7.96008
4.0734	7.87325
4.0543	7.90938
4.0354	7.83712
4.0166	7.63594
3.9981	7.34196
3.9796	7.33093
3.9614	6.9946
3.9433	6.98666
3.9254	7.16314
3.9077	7.10971
3.8901	7.18225
3.8726	7.30901
3.8554	7.51986
3.8382	7.60486
3.8213	7.42479
3.8045	7.4242
3.7878	7.40039
3.7713	7.55554
3.7549	7.67145
3.7386	7.84478
3.7225	8.15199
3.7066	8.09983
3.6907	8.09266
3.675	8.3162
3.6595	8.44331
3.644	8.26124
3.6287	8.31427
3.6136	8.39058
3.5985	8.12453
3.5836	8.29497
3.5688	8.31687
3.5541	8.01997
3.5396	7.77501
3.5251	7.65171
3.5108	7.48207
3.4966	7.09964
3.4825	6.95421
3.4685	6.85625
3.4547	6.72264
3.4409	6.70931
3.4273	6.57137
3.4137	6.65555
3.4003	6.69242
3.387	6.67512
3.3738	6.59137
3.3606	6.53636
3.3476	6.73904
3.3347	6.61798
3.3219	6.60918
3.3092	6.58842
3.2965	6.74865
3.284	6.74125
3.2716	6.49325
3.2593	6.8403
3.247	7.09866
3.2348	6.93224
3.2228	6.94383
3.2108	7.22654
3.1989	6.90394
3.1871	7.29993
3.1754	7.00502
3.1638	6.60127
3.1523	6.90686
3.1408	6.36796
3.1294	6.28292
3.1181	6.41535
3.1069	6.54494
3.0958	6.48644
3.0848	6.66572
3.0738	6.33729
3.0629	6.38026
3.0521	6.66123
3.0413	6.37077
3.0307	6.17584
3.0201	6.27512
3.0096	6.24705
2.9991	6.38621
2.9887	6.08544
2.9784	6.30511
2.9682	5.39503
2.9581	5.63915
2.948	5.90816
2.9379	5.27467
2.928	6.16918
2.9181	5.83632
2.9083	5.61192
2.8985	5.93448
2.8888	5.85385
2.8792	6.10488
2.8697	6.32794
2.8602	6.17796
2.8507	5.8216
2.8413	5.35545
2.832	6.13574
2.8228	5.57488
2.8136	5.48581
2.8045	5.89578
2.7954	5.29461
2.7864	5.39469
2.7774	5.87525
2.7685	5.30346
2.7597	5.41591
2.7509	5.10162
2.7422	5.26552
2.7335	5.13583
2.7249	4.76347
2.7163	5.17003
2.7078	5.1044
2.6994	6.1876
2.691	7.37241
2.6826	9.37983
2.6743	10.1821
2.666	10.5368
2.6578	10.3823
2.6497	10.4844
2.6416	10.7095
2.6336	10.9547
2.6256	10.9657
2.6176	10.8349
2.6097	10.6838
2.6018	10.2881
2.594	10.4263
2.5863	10.2073
2.5785	10.1905
2.5709	10.3031
2.5633	9.8627
2.5557	9.71554
2.5481	10.3048
2.5406	9.94454
2.5332	10.327
2.5258	9.79052
2.5184	10.0711
2.5111	9.59314
2.5038	9.83218
2.4966	9.67636
2.4894	10.0772
2.4823	10.2862
2.4752	10.1671
2.4681	10.1541
2.4611	10.0472
2.4541	10.2848
2.4471	9.89827
2.4402	10.912
2.4333	10.1684
2.4265	10.7371
2.4197	10.712
2.413	10.7445
2.4063	10.3255
2.3996	10.9204
2.3929	10.7212
2.3863	10.8171
2.3798	10.2551
2.3732	11.3994
2.3667	11.734
2.3603	11.6757
2.3538	11.2869
2.3474	10.6029
2.3411	9.75243
2.3347	10.3301
2.3285	10.2318
2.3222	9.29952
2.316	9.93319
2.3098	10.4748
2.3036	10.6264
2.2975	10.3885
2.2914	10.8542
2.2854	10.5921
2.2793	11.9975
2.2733	11.7488
2.2674	11.6921
2.2614	12.578
2.2555	12.4975
2.2497	12.5274
2.2438	12.5401
2.238	12.9807
2.2322	13.7297
2.2265	14.319
2.2208	15.235
2.2151	14.9444
2.2094	15.1404
2.2038	15.2278
2.1982	15.8109
2.1926	15.7467
2.187	15.966
2.1815	15.4927
2.176	16.3704
2.1706	15.9493
2.1651	15.2065
2.1597	15.1899
2.1543	14.7138
2.149	15.2247
2.1436	15.1713
2.1383	14.635
2.1331	14.4655
2.1278	14.7244
2.1226	14.7467
2.1174	14.5881
2.1122	15.4807
2.1071	14.7642
2.1019	15.0408
2.0968	15.0966
2.0918	15.0085
2.0867	15.7195
2.0817	14.8298
2.0767	15.468
2.0717	15.5437
2.0667	15.5321
2.0618	16.5266
2.0569	16.1077
2.052	15.5704
2.0472	15.8557
2.0423	16.3086
2.0375	16.2163
2.0327	15.4014
2.028	14.7052
2.0232	14.8113
2.0185	15.8875
2.0138	14.9164
2.0091	15.2404
2.0044	14.6522
1.9998	14.8151
