Name: Calcite CaCO_3
Type: Mineral
Class: Carbonates
Particle Size: 45-125um
Sample No.: C-3D
Owner: JPL
Origin: United Kingdom, England.
Measurement: Hemispherical reflectance
X Units: Wavelength (micrometers)
Y Units: Reflectance (percent)
wavelength	value
2.5	64.2307
2.494	64.5866
2.488	65.431
2.482	66.5432
2.476	67.8391
2.47	69.4864
2.464	71.1391
2.458	72.8432
2.452	74.2143
2.446	75.25
2.44	76.1762
2.434	77.0034
2.428	77.7709
2.422	78.4828
2.416	79.1554
2.41	79.4812
2.404	79.8377
2.398	80.1461
2.392	80.3773
2.386	80.4731
2.38	80.4621
2.374	79.9051
2.368	78.864
2.362	77.0092
2.356	74.6353
2.35	72.3466
2.344	70.5258
2.338	69.806
2.332	70.1364
2.326	71.1448
2.32	72.4328
2.314	73.4295
2.308	74.2403
2.302	74.8427
2.296	75.3536
2.29	76.1578
2.284	77.0458
2.278	78.1125
2.272	79.1993
2.266	80.1632
2.26	80.9343
2.254	81.6465
2.248	82.1149
2.242	82.6319
2.236	83.0653
2.23	83.5338
2.224	83.7817
2.218	84.086
2.212	84.2648
2.206	84.5833
2.2	84.9055
2.194	85.0567
2.188	85.2432
2.182	85.3073
2.176	85.3222
2.17	85.349
2.164	85.3553
2.158	85.3298
2.152	85.4595
2.146	85.6403
2.14	85.8977
2.134	85.968
2.128	85.8845
2.122	85.6793
2.116	85.4803
2.11	85.1449
2.104	85.0051
2.098	84.8472
2.092	84.9522
2.086	84.9553
2.08	85.0809
2.074	85.0916
2.068	85.0937
2.062	85.1139
2.056	85.1503
2.05	85.0051
2.044	85.0101
2.038	84.9777
2.032	84.8567
2.026	84.666
2.02	84.4291
2.014	84.2588
2.008	83.8333
2.002	83.2682
1.996	82.9526
1.99	82.9096
1.984	82.9376
1.978	82.9392
1.972	82.7612
1.966	82.6615
1.96	82.5783
1.954	82.4326
1.948	82.4274
1.942	82.3706
1.936	82.3498
1.93	82.4481
1.924	82.5434
1.918	82.7214
1.912	82.9588
1.906	83.4964
1.9	84.3588
1.894	85.2678
1.888	85.864
1.882	86.0048
1.876	86.1661
1.87	86.7375
1.864	87.2446
1.858	87.5864
1.852	87.7776
1.846	87.9422
1.84	88.0711
1.834	88.1607
1.828	88.2624
1.822	88.4042
1.816	88.4615
1.81	88.4742
1.804	88.5302
1.798	88.6383
1.792	88.5887
1.786	88.5749
1.78	88.5887
1.774	88.6128
1.768	88.5287
1.762	88.613
1.756	88.5154
1.75	88.5629
1.744	88.6466
1.738	88.5806
1.732	88.6455
1.726	88.7332
1.72	88.7913
1.714	88.8264
1.708	88.905
1.702	88.8889
1.696	88.9072
1.69	88.9154
1.684	88.7851
1.678	88.8275
1.672	88.9008
1.666	89.0131
1.66	88.8909
1.654	88.9183
1.648	88.8841
1.642	88.9252
1.636	88.96
1.63	88.988
1.624	89.0014
1.618	88.9451
1.612	88.905
1.606	89.002
1.6	89.0136
1.594	88.9963
1.588	88.9856
1.582	88.9838
1.576	88.8877
1.57	88.8418
1.564	88.7991
1.558	88.7855
1.552	88.7881
1.546	88.7062
1.54	88.68
1.534	88.666
1.528	88.6342
1.522	88.5883
1.516	88.5539
1.51	88.5071
1.504	88.4158
1.498	88.3381
1.492	88.251
1.486	88.218
1.48	88.1147
1.474	88.0699
1.468	88.0054
1.462	87.9438
1.456	87.9805
1.45	87.9787
1.444	87.8609
1.438	87.9342
1.432	87.9412
1.426	88.0232
1.42	87.9367
1.414	87.9587
1.408	88.1213
1.402	88.3381
1.396	88.6193
1.39	88.866
1.384	89.0116
1.378	89.0897
1.372	89.085
1.366	89.141
1.36	89.0493
1.354	89.1554
1.348	89.1254
1.342	89.0338
1.336	89.1337
1.33	89.0747
1.324	89.1074
1.318	89.1837
1.312	89.0865
1.306	88.9973
1.3	89.0065
1.294	89.0463
1.288	89.0224
1.282	88.9954
1.276	88.9479
1.27	88.9497
1.264	88.9243
1.258	88.9182
1.252	88.8746
1.246	88.8849
1.24	88.8781
1.234	88.7814
1.228	88.7578
1.222	88.7618
1.216	88.728
1.21	88.6983
1.204	88.6726
1.198	88.6197
1.192	88.5884
1.186	88.6262
1.18	88.5902
1.174	88.5182
1.168	88.5358
1.162	88.447
1.156	88.4938
1.15	88.4318
1.144	88.4431
1.138	88.4584
1.132	88.3844
1.126	88.4228
1.12	88.3327
1.114	88.3213
1.108	88.2975
1.102	88.2571
1.096	88.2544
1.09	88.2137
1.084	88.1625
1.078	88.0957
1.072	88.1836
1.066	88.1051
1.06	88.148
1.054	88.0535
1.048	88.0605
1.042	88.0305
1.036	88.0055
1.03	87.8678
1.024	87.944
1.018	87.8616
1.012	87.8228
1.006	87.7801
1	87.81
0.994	87.7724
0.988	87.6953
0.982	87.6281
0.976	87.5973
0.97	87.5494
0.964	87.4729
0.958	87.4752
0.952	87.3683
0.946	87.349
0.94	87.2774
0.934	87.2382
0.928	87.1398
0.922	87.0866
0.916	87.033
0.91	87.0099
0.904	86.912
0.898	86.8355
0.892	86.7006
0.886	86.6246
0.88	86.5767
0.874	86.4606
0.868	86.3703
0.862	86.3078
0.856	86.1184
0.85	86.11
0.844	86.0856
0.838	85.9565
0.832	85.8889
0.826	85.7743
0.82	85.6314
0.814	85.474
0.808	85.3514
0.802	85.2875
0.796	85.0017
0.79	84.8159
0.784	84.6294
0.778	84.5039
0.772	84.2752
0.766	84.1236
0.76	83.9397
0.754	83.7433
0.748	83.5269
0.742	83.3095
0.736	83.1616
0.73	82.9174
0.724	82.6954
0.718	82.4588
0.712	82.2426
0.706	81.9859
0.7	81.7719
0.694	81.496
0.688	81.2424
0.682	80.9719
0.676	80.6929
0.67	80.4265
0.664	80.1475
0.658	79.8369
0.652	79.542
0.646	79.2355
0.64	78.909
0.634	78.6188
0.628	78.2616
0.622	77.9603
0.616	77.6206
0.61	77.2608
0.604	76.9152
0.598	76.5958
0.592	76.2589
0.586	75.8664
0.58	75.4604
0.574	75.0462
0.568	74.6095
0.562	74.1732
0.556	73.6646
0.55	73.1667
0.544	72.6605
0.538	72.1334
0.532	71.5865
0.526	71.0036
0.52	70.4408
0.514	69.8064
0.508	69.1977
0.502	68.544
0.496	67.9169
0.49	67.2964
0.484	66.6516
0.478	66.0463
0.472	65.4051
0.466	64.773
0.46	64.1091
0.454	63.3396
0.448	62.5658
0.442	61.6854
0.436	60.8386
0.43	59.9157
0.424	58.9581
0.418	58.0194
0.412	57.0422
0.406	56.0572
0.4	55.0022
