Name: Pyroxenite
Type: Rock
Class: Igneous
Subclass: Ultramafic
Particle Size: Solid surface
Sample No.: Ward43.txt
Owner: JPL
Origin: Ward's Collection of American Rocks.  Sample locality - near Webster, Jackson County, North Carolina.
Description: A brownish granular rock composed largely of fibrous
Measurement: Hemispherical reflectance
X Units: Wavelength (micrometers)
Y Units: Reflectance (percent)
wavelength	value
2.5	8.38522
2.494	8.1126
2.488	8.29381
2.482	8.37472
2.476	8.30161
2.47	8.37601
2.464	8.45872
2.458	8.2917
2.452	8.29148
2.446	8.28736
2.44	8.38969
2.434	8.39152
2.428	8.30409
2.422	8.3097
2.416	8.3249
2.41	8.32053
2.404	8.36433
2.398	8.25145
2.392	8.28494
2.386	8.32183
2.38	8.22952
2.374	8.23392
2.368	8.27566
2.362	8.28055
2.356	8.2162
2.35	8.23795
2.344	8.20978
2.338	8.1625
2.332	8.12477
2.326	8.05738
2.32	7.97016
2.314	7.92076
2.308	7.8727
2.302	7.86573
2.296	7.93148
2.29	7.90125
2.284	7.85879
2.278	7.91124
2.272	7.93095
2.266	7.91516
2.26	7.98503
2.254	7.88058
2.248	7.88012
2.242	7.86138
2.236	7.82352
2.23	7.78525
2.224	7.7144
2.218	7.80933
2.212	7.82907
2.206	7.77892
2.2	7.68249
2.194	7.61412
2.188	7.69455
2.182	7.63077
2.176	7.68894
2.17	7.63136
2.164	7.64107
2.158	7.55841
2.152	7.55586
2.146	7.48979
2.14	7.47668
2.134	7.5291
2.128	7.36403
2.122	7.37495
2.116	7.30774
2.11	7.32657
2.104	7.24051
2.098	7.22101
2.092	7.19588
2.086	7.17705
2.08	7.12716
2.074	7.15919
2.068	7.1818
2.062	7.13248
2.056	7.05219
2.05	7.04442
2.044	7.0626
2.038	7.01798
2.032	7.04835
2.026	7.07043
2.02	7.03714
2.014	7.02487
2.008	6.96465
2.002	6.98223
1.996	6.91164
1.99	6.85375
1.984	6.83992
1.978	6.86952
1.972	6.8864
1.966	6.77478
1.96	6.83999
1.954	6.77605
1.948	6.8046
1.942	6.84538
1.936	6.79297
1.93	6.78445
1.924	6.8071
1.918	6.64937
1.912	6.74453
1.906	6.66263
1.9	6.7196
1.894	6.8345
1.888	6.75204
1.882	6.90632
1.876	6.84519
1.87	6.79297
1.864	6.93289
1.858	6.95006
1.852	6.95706
1.846	6.84436
1.84	6.90897
1.834	6.86807
1.828	6.92486
1.822	6.92083
1.816	6.9291
1.81	6.91312
1.804	6.96342
1.798	6.96819
1.792	6.96184
1.786	6.99414
1.78	6.98887
1.774	7.01637
1.768	6.99648
1.762	7.06992
1.756	7.11583
1.75	7.07847
1.744	7.11887
1.738	7.08852
1.732	7.1682
1.726	7.19862
1.72	7.2115
1.714	7.18987
1.708	7.28787
1.702	7.26239
1.696	7.32775
1.69	7.42835
1.684	7.44296
1.678	7.39874
1.672	7.42661
1.666	7.41034
1.66	7.56237
1.654	7.55499
1.648	7.67306
1.642	7.7161
1.636	7.70819
1.63	7.77201
1.624	7.81415
1.618	7.76508
1.612	7.92091
1.606	7.94245
1.6	7.99301
1.594	8.17409
1.588	8.14077
1.582	8.30464
1.576	8.26976
1.57	8.35526
1.564	8.45062
1.558	8.51893
1.552	8.67319
1.546	8.74224
1.54	8.84081
1.534	8.87193
1.528	8.93887
1.522	9.11798
1.516	9.17942
1.51	9.28299
1.504	9.41665
1.498	9.48729
1.492	9.65483
1.486	9.80657
1.48	9.94364
1.474	10.0696
1.468	10.1608
1.462	10.3686
1.456	10.5508
1.45	10.7083
1.444	10.8957
1.438	11.0897
1.432	11.2858
1.426	11.5028
1.42	11.7099
1.414	11.7931
1.408	12.0839
1.402	12.3775
1.396	12.473
1.39	12.7188
1.384	13.104
1.378	13.3793
1.372	13.651
1.366	14.0677
1.36	14.2342
1.354	14.5712
1.348	14.7375
1.342	15.0049
1.336	15.3163
1.33	15.5402
1.324	15.786
1.318	16.1071
1.312	16.3286
1.306	16.5683
1.3	16.7446
1.294	16.9402
1.288	17.2099
1.282	17.3502
1.276	17.5351
1.27	17.6715
1.264	17.8222
1.258	17.9151
1.252	18.0062
1.246	18.0398
1.24	18.2145
1.234	18.1641
1.228	18.2606
1.222	18.2327
1.216	18.2396
1.21	18.2012
1.204	18.1874
1.198	18.1349
1.192	18.0372
1.186	17.9591
1.18	17.776
1.174	17.6883
1.168	17.493
1.162	17.3707
1.156	17.1436
1.15	16.9787
1.144	16.6945
1.138	16.4121
1.132	16.1281
1.126	15.7945
1.12	15.3967
1.114	15.0257
1.108	14.5665
1.102	14.1644
1.096	13.7814
1.09	13.3645
1.084	12.901
1.078	12.6567
1.072	12.2917
1.066	11.8553
1.06	11.4929
1.054	11.1471
1.048	10.8366
1.042	10.5544
1.036	10.258
1.03	10.0628
1.024	9.79483
1.018	9.5829
1.012	9.37574
1.006	9.16595
1	9.06206
0.994	8.85425
0.988	8.72894
0.982	8.61876
0.976	8.49351
0.97	8.34053
0.964	8.27216
0.958	8.16482
0.952	8.09549
0.946	8.08523
0.94	8.03526
0.934	8.04761
0.928	7.98061
0.922	7.96887
0.916	7.91943
0.91	7.94502
0.904	7.9622
0.898	8.01111
0.892	8.02176
0.886	8.12678
0.88	8.13795
0.874	8.30022
0.868	8.37461
0.862	8.50645
0.856	8.14951
0.85	8.31214
0.844	8.43311
0.838	8.58137
0.832	8.72969
0.826	8.87502
0.82	9.05427
0.814	9.23064
0.808	9.41968
0.802	9.63312
0.796	9.85655
0.79	10.1203
0.784	10.4177
0.778	10.7138
0.772	11.056
0.766	11.4152
0.76	11.7785
0.754	12.1455
0.748	12.482
0.742	12.7753
0.736	13.0083
0.73	13.1479
0.724	13.2163
0.718	13.2125
0.712	13.1501
0.706	13.0329
0.7	12.9037
0.694	12.8059
0.688	12.7904
0.682	12.7002
0.676	12.5231
0.67	12.3938
0.664	12.3053
0.658	12.2303
0.652	12.1714
0.646	12.1169
0.64	12.0934
0.634	12.0524
0.628	11.9928
0.622	11.9228
0.616	11.8379
0.61	11.7485
0.604	11.6585
0.598	11.5893
0.592	11.5234
0.586	11.4669
0.58	11.4252
0.574	11.3968
0.568	11.3794
0.562	11.3641
0.556	11.2796
0.55	11.1829
0.544	11.1311
0.538	11.1547
0.532	11.0737
0.526	10.8958
0.52	10.6504
0.514	10.3685
0.508	9.99947
0.502	9.74851
0.496	9.60509
0.49	9.41906
0.484	9.23796
0.478	9.13144
0.472	9.06223
0.466	9.01266
0.46	8.96799
0.454	8.92507
0.448	8.87409
0.442	8.81017
0.436	8.75075
0.43	8.6525
0.424	8.5772
0.418	8.57853
0.412	8.57321
0.406	8.58066
0.4	8.5898
