Name: Spodumene LiAlS_2O_6
Type: Mineral
Class: Silicates
Subclass: Inosilicates
Particle Size: 125-500um
Sample No.: IN-13A
Owner: JPL
Origin: Brazil, Minas Gerais.
Measurement: Hemispherical reflectance
X Units: Wavelength (micrometers)
Y Units: Reflectance (percent)
wavelength	value
2.5	72.3756
2.494	72.0388
2.488	72.2299
2.482	72.0569
2.476	72.1876
2.47	72.3186
2.464	72.6349
2.458	72.5449
2.452	72.6738
2.446	72.7796
2.44	72.8323
2.434	72.8258
2.428	72.9368
2.422	73.0639
2.416	73.0652
2.41	73.1547
2.404	73.3152
2.398	73.3183
2.392	73.442
2.386	73.5344
2.38	73.4605
2.374	73.6794
2.368	73.7509
2.362	73.8767
2.356	73.9367
2.35	73.9547
2.344	74.0721
2.338	74.1242
2.332	74.1038
2.326	74.1262
2.32	74.1259
2.314	74.1042
2.308	74.1049
2.302	74.1593
2.296	74.1569
2.29	74.2028
2.284	74.2026
2.278	74.2504
2.272	74.2204
2.266	74.1695
2.26	74.1259
2.254	74.1901
2.248	74.0925
2.242	74.1547
2.236	74.0882
2.23	74.0902
2.224	74.0251
2.218	73.9918
2.212	73.8198
2.206	73.7748
2.2	73.8675
2.194	74.0825
2.188	74.2401
2.182	74.3518
2.176	74.4736
2.17	74.6522
2.164	74.8998
2.158	75.0218
2.152	75.1761
2.146	75.2852
2.14	75.3861
2.134	75.3986
2.128	75.2328
2.122	75.0276
2.116	74.777
2.11	74.4878
2.104	74.2485
2.098	74.0996
2.092	74.1107
2.086	74.2065
2.08	74.1988
2.074	74.2881
2.068	74.2622
2.062	74.3597
2.056	74.3989
2.05	74.4353
2.044	74.4903
2.038	74.5117
2.032	74.532
2.026	74.5539
2.02	74.5174
2.014	74.5079
2.008	74.4431
2.002	74.4433
1.996	74.3644
1.99	74.2644
1.984	74.2502
1.978	74.0897
1.972	74.0285
1.966	73.9645
1.96	73.9878
1.954	73.8651
1.948	73.9269
1.942	73.8585
1.936	73.8794
1.93	73.9116
1.924	73.9237
1.918	73.9212
1.912	73.9141
1.906	74.0249
1.9	74.2807
1.894	74.3759
1.888	74.6286
1.882	74.7685
1.876	74.852
1.87	74.9265
1.864	74.9148
1.858	74.9142
1.852	74.9393
1.846	74.952
1.84	75.0048
1.834	74.9349
1.828	74.8849
1.822	74.928
1.816	74.9012
1.81	74.9296
1.804	74.9346
1.798	74.9899
1.792	74.954
1.786	74.8286
1.78	74.8272
1.774	74.8348
1.768	74.8166
1.762	74.8425
1.756	74.7923
1.75	74.831
1.744	74.8978
1.738	74.8523
1.732	74.8761
1.726	74.9066
1.72	74.8451
1.714	74.8937
1.708	74.8404
1.702	74.8497
1.696	74.7991
1.69	74.7694
1.684	74.8571
1.678	74.8094
1.672	74.7233
1.666	74.836
1.66	74.6828
1.654	74.8042
1.648	74.8063
1.642	74.7739
1.636	74.7879
1.63	74.7423
1.624	74.7395
1.618	74.8029
1.612	74.715
1.606	74.7024
1.6	74.6962
1.594	74.6731
1.588	74.6559
1.582	74.6296
1.576	74.6327
1.57	74.6189
1.564	74.6634
1.558	74.5989
1.552	74.5651
1.546	74.5413
1.54	74.5188
1.534	74.5594
1.528	74.4893
1.522	74.5095
1.516	74.4607
1.51	74.4508
1.504	74.459
1.498	74.3706
1.492	74.386
1.486	74.3666
1.48	74.2757
1.474	74.2879
1.468	74.3062
1.462	74.2267
1.456	74.2188
1.45	74.2305
1.444	74.1911
1.438	74.1752
1.432	74.122
1.426	74.0775
1.42	73.9664
1.414	73.6325
1.408	73.8014
1.402	73.826
1.396	73.981
1.39	73.9845
1.384	73.9939
1.378	74.1444
1.372	74.1329
1.366	74.1933
1.36	74.1864
1.354	74.2149
1.348	74.111
1.342	74.1735
1.336	74.2134
1.33	74.2454
1.324	74.1727
1.318	74.1191
1.312	74.1537
1.306	74.0839
1.3	74.2003
1.294	74.102
1.288	74.1521
1.282	74.1251
1.276	74.0595
1.27	74.0511
1.264	74.0889
1.258	74.0299
1.252	73.9853
1.246	73.9959
1.24	73.9447
1.234	73.9925
1.228	73.9727
1.222	73.9414
1.216	73.9287
1.21	73.8904
1.204	73.8614
1.198	73.8533
1.192	73.856
1.186	73.8802
1.18	73.8497
1.174	73.8674
1.168	73.8164
1.162	73.7712
1.156	73.8187
1.15	73.8144
1.144	73.7443
1.138	73.7537
1.132	73.7199
1.126	73.6712
1.12	73.6495
1.114	73.6176
1.108	73.6774
1.102	73.5998
1.096	73.5177
1.09	73.5541
1.084	73.5152
1.078	73.5468
1.072	73.5441
1.066	73.4657
1.06	73.4612
1.054	73.4983
1.048	73.3499
1.042	73.3149
1.036	73.368
1.03	73.381
1.024	73.2838
1.018	73.2546
1.012	73.199
1.006	73.177
1	73.1034
0.994	73.0748
0.988	73.045
0.982	73.0173
0.976	73.0194
0.97	72.8785
0.964	72.854
0.958	72.7618
0.952	72.8002
0.946	72.7036
0.94	72.6617
0.934	72.6198
0.928	72.5412
0.922	72.4791
0.916	72.4004
0.91	72.3775
0.904	72.3247
0.898	72.2569
0.892	72.2112
0.886	72.1867
0.88	72.1765
0.874	72.1585
0.868	72.1847
0.862	72.1221
0.856	72.2413
0.85	72.1882
0.844	72.153
0.838	72.0409
0.832	71.9958
0.826	71.9817
0.82	71.9201
0.814	71.946
0.808	71.8775
0.802	71.8587
0.796	71.757
0.79	71.7195
0.784	71.6461
0.778	71.5689
0.772	71.5538
0.766	71.4926
0.76	71.4497
0.754	71.4382
0.748	71.3932
0.742	71.3581
0.736	71.3316
0.73	71.2826
0.724	71.2471
0.718	71.1944
0.712	71.1686
0.706	71.1216
0.7	71.0837
0.694	71.047
0.688	70.9733
0.682	70.9095
0.676	70.8455
0.67	70.7955
0.664	70.7642
0.658	70.686
0.652	70.6764
0.646	70.6106
0.64	70.557
0.634	70.5058
0.628	70.4515
0.622	70.3662
0.616	70.2792
0.61	70.1676
0.604	70.0313
0.598	69.8521
0.592	69.6579
0.586	69.3158
0.58	68.9192
0.574	68.4334
0.568	67.9182
0.562	67.3637
0.556	66.7998
0.55	66.309
0.544	65.9106
0.538	65.668
0.532	65.5511
0.526	65.5742
0.52	65.7418
0.514	65.9642
0.508	66.253
0.502	66.5096
0.496	66.725
0.49	66.8656
0.484	66.8983
0.478	66.891
0.472	66.8298
0.466	66.6799
0.46	66.4819
0.454	66.1988
0.448	65.8625
0.442	65.5848
0.436	65.2248
0.43	64.8716
0.424	64.5067
0.418	64.0196
0.412	63.5017
0.406	63.0669
0.4	62.376
