Name: Cerussite PbCO_3
Type: Mineral
Class: Carbonates
Particle Size: 45-125um
Sample No.: C-10A
Owner: JPL
Origin: USA, Arizona, Flux Mine.
Measurement: Hemispherical reflectance
X Units: Wavelength (micrometers)
Y Units: Reflectance (percent)
wavelength	value
2.5	64.216
2.494	63.0639
2.488	62.3639
2.482	61.5908
2.476	61.0607
2.47	60.5994
2.464	60.3799
2.458	60.4075
2.452	60.7534
2.446	61.4102
2.44	61.9923
2.434	62.4707
2.428	62.7519
2.422	63.0779
2.416	63.6801
2.41	64.4819
2.404	65.3401
2.398	66.2496
2.392	67.0811
2.386	67.8835
2.38	68.7064
2.374	69.5485
2.368	70.4215
2.362	71.317
2.356	72.0461
2.35	72.796
2.344	73.5851
2.338	74.3696
2.332	75.0805
2.326	75.682
2.32	76.3125
2.314	76.8572
2.308	77.4802
2.302	78.038
2.296	78.3756
2.29	78.7109
2.284	79.0327
2.278	79.1758
2.272	79.3578
2.266	79.3218
2.26	79.3806
2.254	79.2402
2.248	79.502
2.242	79.7119
2.236	79.8879
2.23	80.1948
2.224	80.672
2.218	81.3069
2.212	81.6412
2.206	82.0406
2.2	82.4449
2.194	82.5436
2.188	82.7964
2.182	83.031
2.176	83.2479
2.17	83.4266
2.164	83.7033
2.158	83.8893
2.152	83.9579
2.146	83.9438
2.14	83.8619
2.134	83.6892
2.128	83.4011
2.122	83.0199
2.116	82.4998
2.11	82.0442
2.104	81.5397
2.098	81.03
2.092	80.5183
2.086	80.0087
2.08	80.0877
2.074	80.4846
2.068	80.7872
2.062	80.9721
2.056	81.22
2.05	81.4193
2.044	81.5399
2.038	81.5517
2.032	81.6302
2.026	81.6737
2.02	81.6118
2.014	81.4651
2.008	81.2659
2.002	81.0716
1.996	80.6771
1.99	80.2077
1.984	79.8243
1.978	79.4756
1.972	79.2242
1.966	78.939
1.96	78.8606
1.954	78.7593
1.948	78.758
1.942	78.7276
1.936	78.7539
1.93	78.7563
1.924	79.1287
1.918	79.4183
1.912	79.8224
1.906	80.3488
1.9	81.1017
1.894	81.853
1.888	82.7738
1.882	83.3916
1.876	83.897
1.87	84.1998
1.864	84.4828
1.858	84.6476
1.852	84.6332
1.846	84.6824
1.84	84.7635
1.834	84.7024
1.828	84.6852
1.822	84.7277
1.816	84.7519
1.81	84.7765
1.804	84.8098
1.798	84.9059
1.792	84.9094
1.786	84.9288
1.78	84.925
1.774	85.0003
1.768	85.002
1.762	85.0735
1.756	85.1392
1.75	85.1258
1.744	85.2518
1.738	85.3035
1.732	85.2624
1.726	85.3136
1.72	85.3552
1.714	85.3426
1.708	85.3744
1.702	85.3947
1.696	85.3384
1.69	85.4253
1.684	85.3331
1.678	85.3967
1.672	85.3516
1.666	85.3759
1.66	85.4229
1.654	85.4242
1.648	85.3344
1.642	85.3587
1.636	85.3561
1.63	85.359
1.624	85.4075
1.618	85.3961
1.612	85.3247
1.606	85.4296
1.6	85.4261
1.594	85.3581
1.588	85.3272
1.582	85.352
1.576	85.3476
1.57	85.317
1.564	85.2988
1.558	85.1988
1.552	85.2206
1.546	85.1748
1.54	85.1212
1.534	85.0432
1.528	85.0327
1.522	84.9533
1.516	84.9019
1.51	84.8474
1.504	84.7488
1.498	84.6788
1.492	84.6347
1.486	84.5696
1.48	84.4866
1.474	84.3704
1.468	84.4641
1.462	84.2823
1.456	84.3212
1.45	84.2802
1.444	84.3745
1.438	84.3559
1.432	84.4016
1.426	84.449
1.42	84.5558
1.414	84.6218
1.408	84.6727
1.402	84.8847
1.396	85.0792
1.39	85.2231
1.384	85.4998
1.378	85.4505
1.372	85.4852
1.366	85.5838
1.36	85.5259
1.354	85.5272
1.348	85.5385
1.342	85.4918
1.336	85.507
1.33	85.4974
1.324	85.5118
1.318	85.5449
1.312	85.5019
1.306	85.5879
1.3	85.553
1.294	85.5358
1.288	85.4703
1.282	85.4595
1.276	85.5108
1.27	85.5094
1.264	85.4318
1.258	85.43
1.252	85.4559
1.246	85.3977
1.24	85.3543
1.234	85.4201
1.228	85.3568
1.222	85.4257
1.216	85.3368
1.21	85.3514
1.204	85.3403
1.198	85.3154
1.192	85.3839
1.186	85.2911
1.18	85.3486
1.174	85.3001
1.168	85.3172
1.162	85.2913
1.156	85.2959
1.15	85.3365
1.144	85.4006
1.138	85.3752
1.132	85.2726
1.126	85.3165
1.12	85.3194
1.114	85.2911
1.108	85.2317
1.102	85.2999
1.096	85.3705
1.09	85.2617
1.084	85.2582
1.078	85.293
1.072	85.1802
1.066	85.2128
1.06	85.1445
1.054	85.21
1.048	85.1774
1.042	85.2321
1.036	85.2305
1.03	85.1151
1.024	85.0993
1.018	85.1354
1.012	85.1025
1.006	85.2013
1	85.0997
0.994	85.0907
0.988	85.0681
0.982	85.0496
0.976	85.0729
0.97	85.0769
0.964	84.9992
0.958	85.0397
0.952	85.0629
0.946	85.035
0.94	85.0259
0.934	84.9906
0.928	84.9491
0.922	85.0083
0.916	84.95
0.91	84.9714
0.904	84.8735
0.898	84.9348
0.892	84.9
0.886	84.8869
0.88	84.8434
0.874	84.8768
0.868	84.8487
0.862	84.8498
0.856	84.5804
0.85	84.6449
0.844	84.6993
0.838	84.608
0.832	84.6861
0.826	84.6654
0.82	84.6712
0.814	84.6931
0.808	84.6116
0.802	84.5472
0.796	84.4679
0.79	84.5115
0.784	84.5435
0.778	84.5159
0.772	84.4223
0.766	84.4439
0.76	84.3767
0.754	84.3498
0.748	84.3107
0.742	84.2473
0.736	84.1247
0.73	84.1418
0.724	84.1624
0.718	84.1672
0.712	84.119
0.706	84.0702
0.7	84.0093
0.694	84.0044
0.688	83.9537
0.682	83.9467
0.676	83.8857
0.67	83.8643
0.664	83.8447
0.658	83.8199
0.652	83.8048
0.646	83.7428
0.64	83.7292
0.634	83.685
0.628	83.6302
0.622	83.5787
0.616	83.4986
0.61	83.4345
0.604	83.3544
0.598	83.256
0.592	83.1473
0.586	82.773
0.58	82.508
0.574	82.648
0.568	82.5954
0.562	82.6448
0.556	82.4812
0.55	82.3533
0.544	82.1845
0.538	82.0023
0.532	81.8081
0.526	81.5833
0.52	81.3734
0.514	81.1592
0.508	80.9356
0.502	80.7573
0.496	80.5081
0.49	80.276
0.484	80.0255
0.478	79.8565
0.472	79.6574
0.466	79.4835
0.46	79.296
0.454	79.0959
0.448	78.7994
0.442	78.4825
0.436	78.1447
0.43	77.7014
0.424	77.3046
0.418	76.9179
0.412	76.5827
0.406	76.2006
0.4	75.7604
