Name: Magnesiochromite MgCr_2O_4
Type: Mineral
Class: Oxides
Particle Size: 45-125um
Sample No.: O-8A
Owner: JPL
Wavelength Range: VNIR-SWIR
Origin: Canada, Quebec, Coleraine Township
Measurement: Hemispherical reflectance
X Units: Wavelength (micrometers)
Y Units: Reflectance (percent)
wavelength	value
0.4	5.48
0.403	5.37
0.406	5.42
0.409	5.35
0.412	5.47
0.415	5.48
0.418	5.53
0.421	5.34
0.424	5.41
0.427	5.35
0.43	5.46
0.433	5.34
0.436	5.34
0.439	5.57
0.442	5.35
0.445	5.41
0.448	5.45
0.451	5.38
0.454	5.5
0.457	5.4
0.46	5.37
0.463	5.4
0.466	5.33
0.469	5.37
0.472	5.32
0.475	5.39
0.478	5.39
0.481	5.34
0.484	5.28
0.487	5.3
0.49	5.35
0.493	5.34
0.496	5.38
0.499	5.3
0.502	5.45
0.505	5.31
0.508	5.37
0.511	5.26
0.514	5.31
0.517	5.38
0.52	5.32
0.523	5.26
0.526	5.31
0.529	5.28
0.532	5.18
0.535	5.06
0.538	5.01
0.541	5
0.544	5.03
0.547	5.05
0.55	5.03
0.553	4.96
0.556	4.96
0.559	4.94
0.562	4.99
0.565	5.05
0.568	4.99
0.571	5.07
0.574	5
0.577	4.97
0.58	5.23
0.583	5.35
0.586	5.36
0.589	5.29
0.592	5.18
0.595	5.3
0.598	5.26
0.601	5.4
0.604	5.39
0.607	5.16
0.61	5.28
0.613	5.38
0.616	5.33
0.619	5.44
0.622	5.22
0.625	5.31
0.628	5.32
0.631	5.32
0.634	5.4
0.637	5.32
0.64	5.38
0.643	5.32
0.646	5.28
0.649	5.38
0.652	5.26
0.655	5.43
0.658	5.34
0.661	5.32
0.664	5.37
0.667	5.19
0.67	5.21
0.673	5.21
0.676	5.21
0.679	5.21
0.682	5.15
0.685	5.15
0.688	5.15
0.691	5.2
0.694	5.21
0.697	5.11
0.7	5.19
0.703	5.27
0.706	5.25
0.709	5.26
0.712	5.26
0.715	5.33
0.718	5.26
0.721	5.38
0.724	5.26
0.727	5.26
0.73	5.38
0.733	5.32
0.736	5.45
0.739	5.31
0.742	5.31
0.745	5.32
0.748	5.35
0.751	5.43
0.754	5.32
0.757	5.37
0.76	5.42
0.763	5.26
0.766	5.41
0.769	5.35
0.772	5.32
0.775	5.41
0.778	5.47
0.781	5.48
0.784	5.57
0.787	5.46
0.79	5.65
0.793	5.46
0.796	5.51
0.799	5.44
0.808	5.44
0.82	5.44
0.832	5.44
0.844	5.45
0.856	5.47
0.868	5.49
0.88	5.54
0.892	5.54
0.904	5.54
0.916	5.53
0.928	5.54
0.94	5.61
0.952	5.55
0.964	5.55
0.976	5.6
0.988	5.64
1	5.7
1.012	5.76
1.024	5.9
1.036	6
1.048	6.14
1.06	6.19
1.072	6.22
1.084	6.39
1.096	6.41
1.108	6.54
1.12	6.41
1.132	6.37
1.144	6.36
1.156	6.46
1.168	6.43
1.18	6.55
1.192	6.55
1.204	6.51
1.216	6.4
1.228	6.53
1.24	6.64
1.252	6.66
1.264	6.66
1.276	6.68
1.288	6.65
1.3	6.81
1.312	7
1.324	7.13
1.336	7.24
1.348	7.33
1.36	7.39
1.372	7.49
1.384	7.58
1.396	7.83
1.408	7.95
1.42	8.06
1.432	7.96
1.444	7.97
1.456	8.1
1.468	8
1.48	7.88
1.492	7.65
1.504	7.54
1.516	7.24
1.528	6.97
1.54	6.69
1.552	6.38
1.564	6.13
1.576	5.97
1.588	5.75
1.6	5.58
1.612	5.46
1.624	5.3
1.636	5.18
1.648	5.04
1.66	4.99
1.672	4.88
1.684	4.71
1.696	4.62
1.708	4.52
1.72	4.47
1.732	4.47
1.744	4.36
1.756	4.34
1.768	4.35
1.78	4.29
1.792	4.34
1.804	4.3
1.816	4.22
1.828	4.23
1.84	4.1
1.852	4.03
1.864	4.04
1.876	4.06
1.888	4.02
1.9	4.08
1.912	4.01
1.924	3.93
1.936	4.04
1.948	4.01
1.96	3.93
1.972	3.94
1.984	3.92
1.996	3.97
2.008	4.06
2.02	4
2.032	3.94
2.044	3.92
2.056	3.98
2.068	4
2.08	4.04
2.092	4.03
2.104	3.99
2.116	3.92
2.128	3.95
2.14	3.89
2.152	3.95
2.164	3.92
2.176	3.91
2.188	3.94
2.2	3.88
2.212	3.93
2.224	3.94
2.236	3.84
2.248	3.87
2.26	3.87
2.272	3.82
2.284	3.75
2.296	3.77
2.308	3.81
2.32	3.75
2.332	3.79
2.344	3.92
2.356	3.9
2.368	3.93
2.38	3.99
2.392	3.98
2.404	3.98
2.416	3.98
2.428	3.97
2.44	3.98
2.452	3.97
2.464	3.97
2.476	3.91
2.488	3.86
2.5	3.96
