Name: Glaucophane Na_2(Mg,Fe^2+)_3Al_2Si_8O_22(OH)_2
Type: Mineral
Class: Silicates
Subclass: Inosilicates
Particle Size: 45-125um
Sample No.: IN-3A
Owner: JPL
Origin: USA, California.
Measurement: Hemispherical reflectance
X Units: Wavelength (micrometers)
Y Units: Reflectance (percent)
wavelength	value
2.5	37.3209
2.494	37.5383
2.488	37.8247
2.482	37.995
2.476	38.3593
2.47	38.7198
2.464	39.175
2.458	39.7806
2.452	40.3135
2.446	40.739
2.44	41.1227
2.434	41.3001
2.428	41.3473
2.422	41.2826
2.416	40.9348
2.41	40.3808
2.404	39.7528
2.398	39.0894
2.392	38.4604
2.386	38.0566
2.38	37.7716
2.374	37.6109
2.368	37.2234
2.362	36.472
2.356	35.2526
2.35	33.814
2.344	32.3208
2.338	30.948
2.332	29.8949
2.326	29.2456
2.32	28.9266
2.314	29.2009
2.308	29.9383
2.302	31.5394
2.296	33.4351
2.29	35.6151
2.284	37.456
2.278	38.8445
2.272	39.958
2.266	40.5745
2.26	41.0166
2.254	41.5459
2.248	42.6219
2.242	44.1679
2.236	45.756
2.23	47.1248
2.224	48.1796
2.218	49.0218
2.212	49.6475
2.206	50.004
2.2	50.3181
2.194	50.6558
2.188	50.9742
2.182	51.204
2.176	51.4928
2.17	51.8331
2.164	52.2273
2.158	52.633
2.152	53.0579
2.146	53.3951
2.14	53.5987
2.134	53.6084
2.128	53.575
2.122	53.5387
2.116	53.5136
2.11	53.4919
2.104	53.4566
2.098	53.5274
2.092	53.6549
2.086	53.6931
2.08	53.715
2.074	53.6634
2.068	53.6881
2.062	53.5795
2.056	53.4828
2.05	53.401
2.044	53.3099
2.038	53.2078
2.032	53.0206
2.026	52.7841
2.02	52.641
2.014	52.3668
2.008	52.2595
2.002	52.2013
1.996	52.1295
1.99	52.0205
1.984	51.9921
1.978	51.7566
1.972	51.5871
1.966	51.4329
1.96	51.208
1.954	50.979
1.948	50.8877
1.942	50.8558
1.936	50.9155
1.93	51.0566
1.924	51.3007
1.918	51.4886
1.912	51.8409
1.906	52.066
1.9	52.3233
1.894	52.5205
1.888	52.6192
1.882	52.7522
1.876	53.0478
1.87	53.06
1.864	53.1277
1.858	53.0945
1.852	53.0977
1.846	53.0512
1.84	52.8642
1.834	52.7775
1.828	52.6848
1.822	52.7275
1.816	52.6562
1.81	52.5855
1.804	52.4897
1.798	52.429
1.792	52.2874
1.786	52.102
1.78	52.0213
1.774	51.876
1.768	51.7736
1.762	51.589
1.756	51.4644
1.75	51.2995
1.744	51.2125
1.738	51.1495
1.732	50.9561
1.726	50.7817
1.72	50.657
1.714	50.5103
1.708	50.3501
1.702	50.1209
1.696	49.9872
1.69	49.7747
1.684	49.6104
1.678	49.4622
1.672	49.2941
1.666	49.2654
1.66	49.0669
1.654	48.9636
1.648	48.6994
1.642	48.6539
1.636	48.3999
1.63	48.2898
1.624	48.0954
1.618	47.9519
1.612	47.7601
1.606	47.5809
1.6	47.3905
1.594	47.241
1.588	47.0148
1.582	46.7459
1.576	46.4498
1.57	46.2733
1.564	45.9795
1.558	45.7061
1.552	45.462
1.546	45.2567
1.54	45.0725
1.534	44.8631
1.528	44.6699
1.522	44.5868
1.516	44.3432
1.51	44.254
1.504	43.9849
1.498	43.8659
1.492	43.6028
1.486	43.4082
1.48	43.1225
1.474	42.8499
1.468	42.5391
1.462	42.2687
1.456	42.1043
1.45	41.8985
1.444	41.7334
1.438	41.713
1.432	41.5336
1.426	41.3862
1.42	40.8108
1.414	38.7717
1.408	34.902
1.402	34.5351
1.396	37.5558
1.39	39.8865
1.384	40.186
1.378	40.0747
1.372	39.8795
1.366	39.6318
1.36	39.2984
1.354	39.0119
1.348	38.685
1.342	38.4396
1.336	38.0774
1.33	37.8519
1.324	37.5255
1.318	37.2107
1.312	36.8761
1.306	36.5749
1.3	36.2501
1.294	35.9096
1.288	35.5589
1.282	35.2078
1.276	34.9213
1.27	34.6244
1.264	34.2336
1.258	33.829
1.252	33.4748
1.246	33.0797
1.24	32.7173
1.234	32.3495
1.228	31.9521
1.222	31.5684
1.216	31.1211
1.21	30.7725
1.204	30.339
1.198	29.9323
1.192	29.4971
1.186	29.1011
1.18	28.6611
1.174	28.264
1.168	27.86
1.162	27.4474
1.156	27.0242
1.15	26.6998
1.144	26.2973
1.138	25.9236
1.132	25.4085
1.126	25.0939
1.12	24.7574
1.114	24.3511
1.108	24.0162
1.102	23.6317
1.096	23.3607
1.09	22.9924
1.084	22.6454
1.078	22.4408
1.072	22.1488
1.066	21.8735
1.06	21.6282
1.054	21.4058
1.048	21.084
1.042	20.9674
1.036	20.7706
1.03	20.5613
1.024	20.4223
1.018	20.2645
1.012	20.097
1.006	19.9431
1	19.9248
0.994	19.741
0.988	19.6814
0.982	19.5696
0.976	19.3622
0.97	19.3434
0.964	19.244
0.958	19.0092
0.952	18.9513
0.946	18.8483
0.94	18.7391
0.934	18.5725
0.928	18.4053
0.922	18.2843
0.916	18.0482
0.91	17.8614
0.904	17.7107
0.898	17.5219
0.892	17.3232
0.886	17.1569
0.88	17.0119
0.874	16.9257
0.868	16.8135
0.862	16.5999
0.856	16.7924
0.85	16.717
0.844	16.6417
0.838	16.5723
0.832	16.5445
0.826	16.4974
0.82	16.4544
0.814	16.4408
0.808	16.4173
0.802	16.3785
0.796	16.3323
0.79	16.2747
0.784	16.1943
0.778	16.1132
0.772	15.9881
0.766	15.8587
0.76	15.7184
0.754	15.527
0.748	15.3246
0.742	15.1187
0.736	14.9122
0.73	14.6951
0.724	14.4774
0.718	14.262
0.712	14.0651
0.706	13.8824
0.7	13.7159
0.694	13.5733
0.688	13.4435
0.682	13.3365
0.676	13.2361
0.67	13.1447
0.664	13.0825
0.658	13.0292
0.652	12.9898
0.646	12.9705
0.64	12.9711
0.634	12.9895
0.628	13.0205
0.622	13.0714
0.616	13.1272
0.61	13.1952
0.604	13.2585
0.598	13.3325
0.592	13.4091
0.586	13.4713
0.58	13.5321
0.574	13.5878
0.568	13.6381
0.562	13.6794
0.556	13.7156
0.55	13.7546
0.544	13.7843
0.538	13.8193
0.532	13.859
0.526	13.9061
0.52	13.9565
0.514	14.0192
0.508	14.0631
0.502	14.0843
0.496	14.0413
0.49	13.9947
0.484	13.9444
0.478	13.7845
0.472	13.6664
0.466	13.6215
0.46	13.488
0.454	13.1535
0.448	13.0411
0.442	12.6297
0.436	12.203
0.43	12.0059
0.424	11.5051
0.418	10.9611
0.412	10.3558
0.406	9.7411
0.4	9.23935
