Name: Sphalerite (Zn,Fe)S
Type: Mineral
Class: Sulfides
Particle Size: 45-125um
Sample No.: S-1A
Owner: JPL
Origin: USA, Oklahoma, Ottawa County, Picher.
Measurement: Hemispherical reflectance
X Units: Wavelength (micrometers)
Y Units: Reflectance (percent)
wavelength	value
2.5	6.70325
2.494	6.49134
2.488	6.4024
2.482	6.73197
2.476	6.66019
2.47	6.80666
2.464	6.75097
2.458	6.8094
2.452	6.90714
2.446	6.97302
2.44	7.02301
2.434	7.03327
2.428	7.10823
2.422	7.12947
2.416	7.22493
2.41	7.35294
2.404	7.46882
2.398	7.52886
2.392	7.65968
2.386	7.68598
2.38	7.93063
2.374	7.95001
2.368	8.02723
2.362	8.156
2.356	8.27744
2.35	8.48565
2.344	8.56768
2.338	8.74654
2.332	8.8375
2.326	9.02221
2.32	9.14315
2.314	9.36088
2.308	9.5013
2.302	9.69312
2.296	9.86633
2.29	10.1051
2.284	10.2785
2.278	10.5026
2.272	10.7486
2.266	11.0436
2.26	11.1878
2.254	11.5285
2.248	11.8035
2.242	12.051
2.236	12.3192
2.23	12.637
2.224	12.959
2.218	13.3025
2.212	13.7869
2.206	14.0401
2.2	14.4001
2.194	14.8304
2.188	15.2774
2.182	15.6477
2.176	16.2014
2.17	16.5197
2.164	17.1159
2.158	17.5825
2.152	18.0881
2.146	18.5738
2.14	19.1695
2.134	19.6546
2.128	20.146
2.122	20.6253
2.116	21.1115
2.11	21.6658
2.104	22.1981
2.098	22.697
2.092	23.3714
2.086	23.9781
2.08	24.5948
2.074	25.2416
2.068	25.8721
2.062	26.5206
2.056	27.1956
2.05	27.8454
2.044	28.4952
2.038	29.1996
2.032	29.8349
2.026	30.475
2.02	31.1456
2.014	31.7537
2.008	32.404
2.002	33.0461
1.996	33.5706
1.99	34.1704
1.984	34.7735
1.978	35.2421
1.972	35.8542
1.966	36.3993
1.96	36.9241
1.954	37.31
1.948	37.8755
1.942	38.3373
1.936	38.7398
1.93	39.1207
1.924	39.6203
1.918	40.0844
1.912	40.3803
1.906	40.7389
1.9	41.019
1.894	41.3074
1.888	41.5866
1.882	41.8464
1.876	42.0465
1.87	42.2054
1.864	42.5232
1.858	42.615
1.852	42.7034
1.846	42.8174
1.84	42.8935
1.834	42.9912
1.828	42.9902
1.822	43.1524
1.816	43.0716
1.81	43.0923
1.804	43.1118
1.798	43.1062
1.792	43.092
1.786	42.9072
1.78	42.9283
1.774	42.8463
1.768	42.8156
1.762	42.7708
1.756	42.6707
1.75	42.5492
1.744	42.5024
1.738	42.4352
1.732	42.3684
1.726	42.3338
1.72	42.189
1.714	42.0764
1.708	41.9843
1.702	41.9654
1.696	41.8638
1.69	41.8144
1.684	41.7614
1.678	41.7091
1.672	41.6247
1.666	41.725
1.66	41.6682
1.654	41.689
1.648	41.6416
1.642	41.666
1.636	41.554
1.63	41.6267
1.624	41.5818
1.618	41.6422
1.612	41.5479
1.606	41.5859
1.6	41.6127
1.594	41.5653
1.588	41.5272
1.582	41.5763
1.576	41.6023
1.57	41.572
1.564	41.5577
1.558	41.5818
1.552	41.5372
1.546	41.4922
1.54	41.5621
1.534	41.5455
1.528	41.5481
1.522	41.5572
1.516	41.4914
1.51	41.5188
1.504	41.5728
1.498	41.5465
1.492	41.5643
1.486	41.5511
1.48	41.524
1.474	41.5773
1.468	41.5727
1.462	41.5524
1.456	41.5737
1.45	41.5542
1.444	41.5312
1.438	41.5772
1.432	41.6178
1.426	41.613
1.42	41.5701
1.414	41.561
1.408	41.5729
1.402	41.659
1.396	41.695
1.39	41.6735
1.384	41.718
1.378	41.7277
1.372	41.6289
1.366	41.6916
1.36	41.6728
1.354	41.7145
1.348	41.5898
1.342	41.6686
1.336	41.6894
1.33	41.642
1.324	41.6707
1.318	41.705
1.312	41.6624
1.306	41.6609
1.3	41.6483
1.294	41.7077
1.288	41.6786
1.282	41.712
1.276	41.738
1.27	41.6917
1.264	41.726
1.258	41.7134
1.252	41.7269
1.246	41.744
1.24	41.6686
1.234	41.7057
1.228	41.664
1.222	41.7211
1.216	41.6872
1.21	41.7063
1.204	41.6711
1.198	41.688
1.192	41.6846
1.186	41.723
1.18	41.6947
1.174	41.6915
1.168	41.6969
1.162	41.6845
1.156	41.6444
1.15	41.679
1.144	41.6983
1.138	41.7026
1.132	41.6514
1.126	41.648
1.12	41.6249
1.114	41.5785
1.108	41.6498
1.102	41.5795
1.096	41.5238
1.09	41.664
1.084	41.5983
1.078	41.6235
1.072	41.6141
1.066	41.5354
1.06	41.5623
1.054	41.5171
1.048	41.5472
1.042	41.4986
1.036	41.4748
1.03	41.4052
1.024	41.4573
1.018	41.4166
1.012	41.3755
1.006	41.3023
1	41.3053
0.994	41.2722
0.988	41.2646
0.982	41.1596
0.976	41.1027
0.97	41.1017
0.964	40.9828
0.958	40.8952
0.952	40.8633
0.946	40.7939
0.94	40.6032
0.934	40.4904
0.928	40.3911
0.922	40.1908
0.916	40.0247
0.91	39.8538
0.904	39.6532
0.898	39.4393
0.892	39.223
0.886	38.9596
0.88	38.7616
0.874	38.4986
0.868	38.2693
0.862	37.991
0.856	38.2571
0.85	38.0451
0.844	37.8543
0.838	37.6502
0.832	37.4411
0.826	37.2368
0.82	37.0635
0.814	36.8107
0.808	36.6233
0.802	36.423
0.796	36.1796
0.79	35.9256
0.784	35.6992
0.778	35.4524
0.772	35.1573
0.766	34.8705
0.76	34.5467
0.754	34.2089
0.748	33.8068
0.742	33.3279
0.736	32.8139
0.73	32.2061
0.724	31.5626
0.718	30.8522
0.712	30.1361
0.706	29.4054
0.7	28.7364
0.694	28.1099
0.688	27.5753
0.682	27.11
0.676	26.6798
0.67	26.2677
0.664	25.8768
0.658	25.4981
0.652	25.1371
0.646	24.7979
0.64	24.5136
0.634	24.281
0.628	24.1458
0.622	24.0474
0.616	23.966
0.61	23.826
0.604	23.6055
0.598	23.3311
0.592	23.0389
0.586	22.6999
0.58	22.2897
0.574	21.8729
0.568	21.4294
0.562	20.9386
0.556	20.3698
0.55	19.7369
0.544	19.1165
0.538	18.4962
0.532	17.8542
0.526	17.2297
0.52	16.6035
0.514	15.9887
0.508	15.3445
0.502	14.7154
0.496	14.1672
0.49	13.7641
0.484	13.4021
0.478	12.9512
0.472	12.4108
0.466	11.9616
0.46	11.6893
0.454	11.4045
0.448	11.0255
0.442	10.6586
0.436	10.3909
0.43	10.1867
0.424	10.0292
0.418	9.86616
0.412	9.63938
0.406	9.3939
0.4	9.17914
