Name: Sulphur S
Type: Mineral
Class: Elements
Particle Size: 125-500um
Sample No.: E-2A
Owner: JPL
Wavelength Range: VNIR-SWIR
Measurement: Hemispherical reflectance
X Units: Wavelength (micrometers)
Y Units: Reflectance (percent)
wavelength	value
0.4	6.91
0.403	6.9
0.406	6.9
0.409	6.7
0.412	6.81
0.415	6.95
0.418	7.18
0.421	7.35
0.424	7.71
0.427	8.38
0.43	9.2
0.433	10.54
0.436	12.12
0.439	13.95
0.442	16.42
0.445	19.27
0.448	22.76
0.451	26.4
0.454	30.28
0.457	34.69
0.46	37.37
0.463	43.52
0.466	47.79
0.469	52.12
0.472	56.35
0.475	60.38
0.478	64.13
0.481	67.36
0.484	70.53
0.487	73.31
0.49	75.96
0.493	78.36
0.496	80.33
0.499	82.02
0.502	83.6
0.505	84.9
0.508	86.15
0.511	87.26
0.514	87.94
0.517	88.65
0.52	89.34
0.523	89.76
0.526	90.45
0.529	90.44
0.532	90.77
0.535	91.02
0.538	91.13
0.541	91.49
0.544	91.44
0.547	91.57
0.55	91.64
0.553	91.94
0.556	91.77
0.559	91.92
0.562	92.23
0.565	92.3
0.568	92.24
0.571	92.18
0.574	92.09
0.577	92.06
0.58	92.11
0.583	91.88
0.586	92
0.589	92.05
0.592	92.11
0.595	92.23
0.598	92.01
0.601	92.34
0.604	92.24
0.607	92.3
0.61	92.42
0.613	92.35
0.616	92.31
0.619	92.07
0.622	92.3
0.625	92.24
0.628	92.3
0.631	92.24
0.634	92.19
0.637	92.18
0.64	92.19
0.643	92.3
0.646	92.08
0.649	92.36
0.652	92.36
0.655	92.42
0.658	92.3
0.661	92.12
0.664	92.36
0.667	92.36
0.67	92.42
0.673	92.42
0.676	92.36
0.679	92.36
0.682	92.19
0.685	92.42
0.688	92.42
0.691	92.36
0.694	92.42
0.697	92.41
0.7	92.38
0.703	92.48
0.706	92.53
0.709	92.31
0.712	92.54
0.715	92.36
0.718	92.48
0.721	92.48
0.724	92.37
0.727	92.36
0.73	92.36
0.733	92.48
0.736	92.53
0.739	92.31
0.742	92.37
0.745	92.37
0.748	92.54
0.751	92.6
0.754	92.48
0.757	92.25
0.76	92.37
0.763	92.43
0.766	92.54
0.769	92.25
0.772	92.37
0.775	92.36
0.778	92.37
0.781	92.43
0.784	92.31
0.787	92.37
0.79	92.26
0.793	92.6
0.796	92.48
0.799	92.54
0.808	92.37
0.82	92.37
0.832	92.43
0.844	92.55
0.856	92.78
0.868	92.78
0.88	92.78
0.892	92.84
0.904	92.72
0.916	92.84
0.928	92.84
0.94	92.84
0.952	92.84
0.964	92.9
0.976	92.84
0.988	92.78
1	92.84
1.012	92.9
1.024	92.78
1.036	92.78
1.048	92.72
1.06	92.72
1.072	92.85
1.084	92.8
1.096	93.04
1.108	92.87
1.12	92.92
1.132	92.8
1.144	92.84
1.156	92.78
1.168	92.75
1.18	92.84
1.192	92.77
1.204	92.92
1.216	92.76
1.228	92.65
1.24	92.66
1.252	92.73
1.264	92.64
1.276	92.68
1.288	92.82
1.3	92.74
1.312	92.67
1.324	92.71
1.336	92.69
1.348	92.6
1.36	92.68
1.372	92.54
1.384	92.47
1.396	92.59
1.408	92.67
1.42	92.7
1.432	92.7
1.444	92.67
1.456	92.58
1.468	92.69
1.48	92.74
1.492	92.63
1.504	92.57
1.516	92.81
1.528	92.74
1.54	92.8
1.552	92.63
1.564	92.63
1.576	92.57
1.588	92.58
1.6	92.63
1.612	92.84
1.624	92.87
1.636	92.8
1.648	92.78
1.66	92.81
1.672	92.79
1.684	92.76
1.696	92.8
1.708	93.02
1.72	92.97
1.732	92.9
1.744	92.73
1.756	92.67
1.768	92.62
1.78	92.73
1.792	92.79
1.804	92.88
1.816	92.9
1.828	92.87
1.84	92.72
1.852	92.64
1.864	92.68
1.876	92.6
1.888	92.58
1.9	92.67
1.912	92.64
1.924	92.72
1.936	92.7
1.948	92.79
1.96	92.79
1.972	92.74
1.984	92.96
1.996	92.94
2.008	92.94
2.02	93.13
2.032	93.1
2.044	93.23
2.056	93.28
2.068	93.33
2.08	93.5
2.092	93.55
2.104	93.62
2.116	93.75
2.128	93.75
2.14	93.56
2.152	93.33
2.164	93.33
2.176	93.17
2.188	93.09
2.2	93.04
2.212	92.95
2.224	93.19
2.236	93.14
2.248	93.27
2.26	93.29
2.272	93.37
2.284	93.26
2.296	93.4
2.308	93.26
2.32	93.43
2.332	93.49
2.344	93.61
2.356	93.62
2.368	93.61
2.38	93.64
2.392	93.6
2.404	93.6
2.416	93.68
2.428	93.66
2.44	93.69
2.452	93.73
2.464	93.8
2.476	93.84
2.488	94.31
2.5	94.79
