Name: Magnesiochromite MgCr_2O_4
Type: Mineral
Class: Oxides
Particle Size: 125-500um
Sample No.: O-8A
Owner: JPL
Wavelength Range: VNIR-SWIR
Origin: Canada, Quebec, Coleraine Township
Measurement: Hemispherical reflectance
X Units: Wavelength (micrometers)
Y Units: Reflectance (percent)
wavelength	value
0.4	5.77
0.403	5.78
0.406	5.84
0.409	5.66
0.412	5.66
0.415	5.78
0.418	5.78
0.421	5.77
0.424	5.72
0.427	5.64
0.43	5.76
0.433	5.76
0.436	5.64
0.439	5.7
0.442	5.76
0.445	5.75
0.448	5.7
0.451	5.65
0.454	5.57
0.457	5.71
0.46	5.57
0.463	5.69
0.466	5.68
0.469	5.57
0.472	5.51
0.475	5.75
0.478	5.73
0.481	5.67
0.484	5.6
0.487	5.63
0.49	5.63
0.493	5.6
0.496	5.58
0.499	5.62
0.502	5.65
0.505	5.6
0.508	5.54
0.511	5.51
0.514	5.65
0.517	5.7
0.52	5.58
0.523	5.53
0.526	5.6
0.529	5.61
0.532	5.62
0.535	5.48
0.538	5.37
0.541	5.54
0.544	5.59
0.547	5.45
0.55	5.36
0.553	5.56
0.556	5.48
0.559	5.4
0.562	5.4
0.565	5.47
0.568	5.45
0.571	5.4
0.574	5.37
0.577	5.27
0.58	5.34
0.583	5.42
0.586	5.35
0.589	5.36
0.592	5.29
0.595	5.36
0.598	5.44
0.601	5.31
0.604	5.25
0.607	5.44
0.61	5.39
0.613	5.34
0.616	5.38
0.619	5.43
0.622	5.43
0.625	5.33
0.628	5.37
0.631	5.26
0.634	5.4
0.637	5.45
0.64	5.32
0.643	5.32
0.646	5.44
0.649	5.33
0.652	5.38
0.655	5.34
0.658	5.32
0.661	5.4
0.664	5.43
0.667	5.2
0.67	5.26
0.673	5.33
0.676	5.44
0.679	5.26
0.682	5.2
0.685	5.27
0.688	5.31
0.691	5.43
0.694	5.2
0.697	5.28
0.7	5.37
0.703	5.31
0.706	5.38
0.709	5.48
0.712	5.31
0.715	5.26
0.718	5.38
0.721	5.38
0.724	5.26
0.727	5.27
0.73	5.37
0.733	5.38
0.736	5.32
0.739	5.37
0.742	5.37
0.745	5.48
0.748	5.49
0.751	5.31
0.754	5.37
0.757	5.48
0.76	5.48
0.763	5.47
0.766	5.42
0.769	5.42
0.772	5.52
0.775	5.6
0.778	5.47
0.781	5.46
0.784	5.46
0.787	5.45
0.79	5.46
0.793	5.46
0.796	5.36
0.799	5.5
0.808	5.68
0.82	5.61
0.832	5.75
0.844	5.76
0.856	5.71
0.868	5.72
0.88	5.66
0.892	5.55
0.904	5.61
0.916	5.59
0.928	5.6
0.94	5.61
0.952	5.66
0.964	5.67
0.976	5.72
0.988	5.71
1	5.65
1.012	5.61
1.024	5.66
1.036	5.67
1.048	5.78
1.06	5.7
1.072	5.74
1.084	5.67
1.096	5.64
1.108	5.68
1.12	5.83
1.132	5.76
1.144	5.74
1.156	5.7
1.168	5.65
1.18	5.68
1.192	5.7
1.204	5.75
1.216	5.81
1.228	5.76
1.24	5.64
1.252	5.67
1.264	5.67
1.276	5.65
1.288	5.67
1.3	5.66
1.312	5.73
1.324	5.73
1.336	5.74
1.348	5.78
1.36	5.77
1.372	5.81
1.384	5.69
1.396	5.76
1.408	5.87
1.42	5.91
1.432	5.93
1.444	5.9
1.456	5.94
1.468	5.81
1.48	5.81
1.492	5.75
1.504	5.77
1.516	5.74
1.528	5.62
1.54	5.54
1.552	5.48
1.564	5.51
1.576	5.41
1.588	5.31
1.6	5.3
1.612	5.24
1.624	5.17
1.636	5.07
1.648	5.06
1.66	5.03
1.672	4.94
1.684	5.04
1.696	4.99
1.708	4.92
1.72	4.8
1.732	4.8
1.744	4.78
1.756	4.81
1.768	4.75
1.78	4.64
1.792	4.63
1.804	4.64
1.816	4.62
1.828	4.61
1.84	4.62
1.852	4.57
1.864	4.57
1.876	4.59
1.888	4.48
1.9	4.48
1.912	4.43
1.924	4.38
1.936	4.32
1.948	4.31
1.96	4.29
1.972	4.35
1.984	4.27
1.996	4.38
2.008	4.42
2.02	4.38
2.032	4.43
2.044	4.43
2.056	4.42
2.068	4.44
2.08	4.38
2.092	4.37
2.104	4.33
2.116	4.34
2.128	4.32
2.14	4.36
2.152	4.4
2.164	4.39
2.176	4.42
2.188	4.43
2.2	4.39
2.212	4.32
2.224	4.22
2.236	4.16
2.248	4.1
2.26	4.04
2.272	4.04
2.284	3.98
2.296	3.98
2.308	3.98
2.32	4.04
2.332	4.08
2.344	4.17
2.356	4.17
2.368	4.14
2.38	4.21
2.392	4.21
2.404	4.26
2.416	4.26
2.428	4.19
2.44	4.19
2.452	4.14
2.464	4.19
2.476	4.19
2.488	4.24
2.5	4.22
