Name: Quartz SiO_2
Type: Mineral
Class: Silicates
Subclass: Tectosilicates
Particle Size: 45-125um
Sample No.: TS-1E
Owner: JPL
Description: Crysoprase
Measurement: Hemispherical reflectance
X Units: Wavelength (micrometers)
Y Units: Reflectance (percent)
wavelength	value
15.385	3.3546
15.116	3.4865
14.856	2.8043
14.605	2.9074
14.362	2.8226
14.128	2.4504
13.9	2.8903
13.68	3.4264
13.467	3.7979
13.26	4.0451
13.06	4.6112
12.866	7.442
12.677	5.8287
12.494	6.7038
12.316	0.9156
12.143	1.2333
11.974	2.3182
11.811	2.8136
11.651	3.1167
11.496	3.6013
11.345	3.5964
11.198	3.8911
11.055	4.0031
10.915	4.2705
10.779	4.2358
10.647	4.6284
10.517	4.6772
10.39	5.0974
10.267	5.3877
10.146	5.8593
10.029	6.4598
9.914	7.1367
9.801	8.1193
9.691	9.631
9.584	11.8042
9.479	15.9449
9.376	26.8479
9.275	35.7964
9.177	36.2346
9.08	35.4705
8.986	33.8769
8.893	31.023
8.803	28.0092
8.714	25.1177
8.627	18.3428
8.542	25.5094
8.458	27.2683
8.376	28.6457
8.296	30.6917
8.217	33.0943
8.139	28.8522
8.063	19.238
7.989	12.3557
7.916	6.9924
7.844	3.6626
7.773	2.2777
7.704	1.0493
7.636	0.5396
7.569	0.2793
7.503	0
7.439	0.1012
7.375	0.1339
7.313	0.0461
7.252	0.0856
7.191	0.2967
7.132	0.4102
7.073	0.5164
7.016	0.6272
6.96	0.9317
6.904	1.0506
6.849	1.1262
6.795	1.1662
6.742	0.9776
6.69	0.8936
6.639	1.2576
6.588	1.1394
6.538	1.1493
6.489	2.1418
6.441	3.1168
6.393	2.8321
6.346	2.0706
6.3	1.3274
6.254	1.0359
6.209	0.8697
6.165	1.1153
6.121	1.7951
6.078	2.5849
6.036	2.6479
5.994	2.4067
5.953	1.7726
5.912	2.0403
5.872	3.0115
5.832	4.2265
5.793	5.5761
5.755	6.8793
5.716	7.6393
5.679	6.4759
5.642	3.9318
5.605	2.5835
5.569	2.3585
5.533	2.8341
5.498	3.8489
5.463	4.8869
5.429	4.1267
5.395	2.0585
5.362	1.3245
5.329	1.2467
5.296	1.4605
5.264	1.8902
5.232	3.1457
5.2	4.8774
5.169	4.8213
5.139	4.5063
5.108	4.4353
5.078	3.5836
5.049	3.3987
5.019	3.1639
4.99	3.4715
4.962	5.218
4.933	6.8245
4.905	10.8547
4.878	18.9294
4.85	24.7814
4.823	28.673
4.796	31.5708
4.77	33.8233
4.744	35.164
4.718	35.1545
4.692	32.4044
4.667	33.5121
4.642	37.4586
4.617	40.5279
4.592	41.7029
4.568	41.6873
4.544	39.6492
4.52	35.1413
4.497	30.1178
4.474	28.1471
4.45	29.5469
4.428	31.3783
4.405	33.8803
4.383	37.1125
4.361	40.4369
4.339	42.8237
4.317	43.446
4.296	43.2549
4.274	43.4058
4.253	45.33
4.233	45.3978
4.212	45.6738
4.191	45.95
4.171	47.1239
4.151	48.1858
4.131	49.3104
4.112	50.7036
4.092	51.9506
4.073	52.8853
4.054	53.2291
4.035	53.2341
4.016	53.0828
3.998	53.1403
3.979	53.5311
3.961	54.1097
3.943	54.6286
3.925	54.9312
3.907	54.6922
3.89	54.1347
3.872	53.3505
3.855	52.9103
3.838	52.7165
3.821	52.6561
3.804	52.4138
3.787	51.9581
3.771	51.0764
3.754	50.2443
3.738	49.597
3.722	49.5025
3.706	49.4125
3.69	49.5583
3.675	49.3358
3.659	48.9946
3.644	48.3849
3.628	47.7361
3.613	46.8736
3.598	45.9417
3.583	45.1901
3.568	44.3186
3.554	43.2832
3.539	42.4087
3.525	41.0609
3.51	39.2213
3.496	38.2002
3.482	37.3104
3.468	36.3726
3.454	35.2784
3.441	33.7917
3.427	32.1738
3.413	30.7266
3.4	30.2958
3.387	29.156
3.373	28.4053
3.36	27.5471
3.347	26.6478
3.334	25.8914
3.321	24.8429
3.309	23.8386
3.296	22.8354
3.284	21.9548
3.271	21.0069
3.259	20.1373
3.247	19.2415
3.234	18.3483
3.222	17.4959
3.21	16.7319
3.199	15.8921
3.187	15.0178
3.175	14.4097
3.163	13.8099
3.152	13.0856
3.14	12.2492
3.129	11.7331
3.118	11.2641
3.107	10.8752
3.095	10.6222
3.084	9.7841
3.073	9.3903
3.063	9.1601
3.052	8.8409
3.041	8.3808
3.03	8.2697
3.02	7.9427
3.009	7.5755
2.999	7.3006
2.988	7.2315
2.978	6.9891
2.968	6.5248
2.958	6.4367
2.948	6.3608
2.938	6.393
2.928	6.1214
2.918	5.9494
2.908	6.007
2.898	6.0472
2.888	6.1799
2.879	6.488
2.869	6.6791
2.86	7.191
2.85	7.7174
2.841	7.9394
2.832	8.7552
2.822	8.944
2.813	8.7773
2.804	8.4358
2.795	7.9622
2.786	7.6021
2.777	8.2822
2.768	9.136
2.759	8.3202
2.751	11.1739
2.742	13.4709
2.733	19.5937
2.725	26.1482
2.716	33.4067
2.707	40.7565
2.699	46.6127
2.691	51.0696
2.682	55.127
2.674	58.1355
2.666	61.7828
2.658	62.3437
2.649	63.5262
2.641	64.6081
2.633	65.4083
2.625	66.0528
2.617	66.9093
2.609	66.8087
2.602	67.1148
2.594	68.1472
2.586	67.2953
2.578	67.457
2.571	67.6854
2.563	68.2758
2.555	67.8773
2.548	68.1492
2.54	68.3268
2.533	68.7707
2.525	68.9257
2.518	69.2218
2.511	69.5551
2.504	69.89
2.496	70.2684
2.489	70.6297
2.482	71.0972
2.475	71.5733
2.468	71.9354
2.461	72.8226
2.454	73.4006
2.447	74.2431
2.44	74.8544
2.433	75.4672
2.426	75.635
2.419	76.2006
2.413	76.4098
2.406	76.7184
2.399	77.4605
2.393	77.7085
2.386	78.113
2.379	78.163
2.373	78.3315
2.366	78.2753
2.36	78.2331
2.354	77.9195
2.347	77.6717
2.341	77.2773
2.334	76.6201
2.328	75.8465
2.322	75.2404
2.316	75.1062
2.309	74.7821
2.303	74.8358
2.297	75.0362
2.291	75.3099
2.285	75.4304
2.279	75.6289
2.273	75.6474
2.267	75.4827
2.261	75.3424
2.255	75.2988
2.249	75.3458
2.244	75.3723
2.238	75.646
2.232	75.527
2.226	75.5369
2.22	75.3631
2.215	75.7306
2.209	75.6591
2.204	76.4991
2.198	77.061
2.192	77.9745
2.187	78.676
2.181	79.5168
2.176	80.3249
2.17	80.6193
2.165	80.9229
2.159	81.4512
2.154	81.7755
2.149	82.0197
2.143	82.2818
2.138	82.4141
2.133	82.5861
2.128	82.7298
2.122	82.8372
2.117	82.801
2.112	82.8893
2.107	82.8668
2.102	82.7004
2.097	82.746
2.091	83.0982
2.086	82.8969
2.081	82.7996
2.076	82.7774
2.071	82.916
2.066	82.6216
2.062	82.8572
2.057	82.7268
2.052	82.7626
2.047	82.9469
2.042	82.8959
2.037	82.7549
2.032	82.8072
2.028	82.3908
2.023	82.3382
2.018	82.1791
2.014	82.2432
2.009	81.7998
2.004	81.9373
