Name: Mica Dacite Porphyry
Type: Rock
Class: Igneous
Subclass: Intermediate
Particle Size: Solid surface
Sample No.: Ward27.txt
Owner: JPL
Origin: Ward's Collection of American Rocks.  Sample locality - Ward, Boulder County, Colorado.
Description: A gray porphyritic rock with phenocrysts of both glassy and
Measurement: Hemispherical reflectance
X Units: Wavelength (micrometers)
Y Units: Reflectance (percent)
wavelength	value
15.3871	5.12424
15.118	3.91779
14.8581	3.77369
14.6069	4.35598
14.3642	4.72037
14.1293	4.13342
13.9021	4.71499
13.682	4.73182
13.4687	5.22927
13.2621	5.09817
13.0616	5.52638
12.8672	6.32261
12.6784	5.68372
12.4951	5.6697
12.317	4.43915
12.1439	5.23358
11.9757	5.49235
11.812	6.08013
11.6527	6.38517
11.4977	6.83434
11.3468	7.47765
11.1997	7.58413
11.0564	7.93121
10.9168	8.35142
10.7806	8.92378
10.6478	9.59925
10.5182	10.0959
10.3917	10.8669
10.2683	11.967
10.1477	13.0863
10.0299	14.0841
9.9148	14.7431
9.8024	14.9878
9.6925	15.7167
9.585	15.894
9.4798	15.0985
9.377	15.6342
9.2763	16.0733
9.1778	15.5572
9.0814	15.4022
8.987	15.3113
8.8945	15.1118
8.8039	15.5915
8.7151	15.49
8.6281	14.0931
8.5428	16.3288
8.4592	16.7015
8.3772	16.3359
8.2967	15.8464
8.2179	14.5553
8.1404	11.979
8.0645	8.81275
7.9899	6.87789
7.9167	5.1779
7.8449	4.29521
7.7743	3.92704
7.705	3.67893
7.6369	3.31334
7.57	3.26321
7.5043	3.23087
7.4397	3.33616
7.3762	3.16408
7.3138	3.08324
7.2524	3.25204
7.1921	3.48843
7.1327	3.66563
7.0743	3.99933
7.0169	3.77845
6.9604	3.92851
6.9047	3.89095
6.85	3.79773
6.7962	4.06153
6.7431	4.23234
6.6909	4.52478
6.6395	4.71782
6.5889	4.5788
6.539	4.56503
6.49	4.78724
6.4416	4.54656
6.3939	4.19724
6.347	4.00289
6.3007	3.90018
6.2551	3.74648
6.2101	3.63262
6.1658	3.55676
6.1222	3.58789
6.0791	3.66937
6.0366	3.68162
5.9948	3.69648
5.9535	3.52781
5.9127	3.68531
5.8726	3.91417
5.8329	3.96038
5.7938	3.95442
5.7552	3.95988
5.7172	4.10092
5.6796	4.10185
5.6425	4.16064
5.6059	4.13127
5.5698	4.10798
5.5341	4.27871
5.4989	4.45505
5.4641	4.49059
5.4298	4.59886
5.3959	4.51386
5.3624	4.49115
5.3294	4.61668
5.2967	4.53876
5.2644	4.77745
5.2326	4.83167
5.2011	5.06729
5.17	4.93475
5.1392	5.14775
5.1088	4.94048
5.0788	5.01576
5.0491	5.18142
5.0198	5.06328
4.9908	5.2053
4.9622	5.32912
4.9338	5.44814
4.9058	5.60081
4.8781	5.85614
4.8508	6.00183
4.8237	6.16464
4.7969	6.19907
4.7704	6.27609
4.7443	6.34762
4.7184	6.45815
4.6927	6.5759
4.6674	6.65913
4.6423	6.69609
4.6175	6.81282
4.593	7.12731
4.5687	7.40571
4.5447	7.40009
4.5209	7.46626
4.4974	7.52814
4.4741	7.57833
4.451	7.91835
4.4282	8.02177
4.4057	8.08196
4.3833	8.45246
4.3612	8.68116
4.3393	9.11959
4.3176	8.98767
4.2962	9.3036
4.2749	9.34184
4.2539	9.56144
4.233	9.52118
4.2124	9.73886
4.192	9.91054
4.1717	10.1764
4.1517	10.1996
4.1319	10.2619
4.1122	10.2025
4.0927	10.5219
4.0734	10.4311
4.0543	10.4571
4.0354	10.255
4.0166	9.86677
3.9981	9.43268
3.9796	9.21001
3.9614	9.46665
3.9433	10.0144
3.9254	10.2676
3.9077	10.4826
3.8901	10.3478
3.8726	10.5529
3.8554	10.3558
3.8382	10.5577
3.8213	10.92
3.8045	11.1474
3.7878	11.2421
3.7713	11.4655
3.7549	11.4168
3.7386	11.48
3.7225	11.5245
3.7066	11.3727
3.6907	11.4462
3.675	11.4715
3.6595	11.2654
3.644	11.4981
3.6287	11.3019
3.6136	11.3302
3.5985	11.3372
3.5836	11.2352
3.5688	10.9305
3.5541	10.8479
3.5396	10.4867
3.5251	10.636
3.5108	9.96309
3.4966	9.78851
3.4825	9.57667
3.4685	9.68717
3.4547	9.52572
3.4409	9.60573
3.4273	9.42546
3.4137	9.36722
3.4003	9.49185
3.387	9.09437
3.3738	9.59477
3.3606	9.41808
3.3476	9.15444
3.3347	9.52901
3.3219	9.46354
3.3092	9.46441
3.2965	9.33424
3.284	9.18154
3.2716	9.09151
3.2593	8.75145
3.247	8.57894
3.2348	8.25244
3.2228	8.29736
3.2108	8.5177
3.1989	8.20739
3.1871	7.89412
3.1754	7.74366
3.1638	7.78086
3.1523	7.80724
3.1408	7.61078
3.1294	7.18976
3.1181	7.0583
3.1069	7.08971
3.0958	7.11205
3.0848	7.14377
3.0738	6.61439
3.0629	6.83606
3.0521	6.6741
3.0413	6.86634
3.0307	6.5189
3.0201	6.81367
3.0096	6.74226
2.9991	6.07407
2.9887	6.39968
2.9784	6.22921
2.9682	6.73337
2.9581	6.78056
2.948	5.79454
2.9379	6.4961
2.928	6.18692
2.9181	6.54451
2.9083	6.53119
2.8985	6.66218
2.8888	5.67499
2.8792	6.57173
2.8697	6.24987
2.8602	6.42208
2.8507	6.97321
2.8413	6.73925
2.832	6.88386
2.8228	6.71866
2.8136	7.26556
2.8045	6.76035
2.7954	5.93781
2.7864	7.11878
2.7774	6.61142
2.7685	6.70218
2.7597	6.36753
2.7509	6.15788
2.7422	7.21424
2.7335	7.38838
2.7249	8.02865
2.7163	9.45711
2.7078	9.72466
2.6994	10.5949
2.691	12.2779
2.6826	13.1487
2.6743	13.8307
2.666	14.1726
2.6578	14.3445
2.6497	14.1861
2.6416	14.6208
2.6336	14.661
2.6256	14.4649
2.6176	14.9689
2.6097	15.3572
2.6018	15.1374
2.594	15.3395
2.5863	15.5371
2.5785	15.2341
2.5709	15.3393
2.5633	15.3864
2.5557	15.334
2.5481	15.4658
2.5406	15.3482
2.5332	15.3083
2.5258	15.5491
2.5184	15.4774
2.5111	15.0807
2.5038	15.4223
2.4966	15.8641
2.4894	15.6114
2.4823	15.1362
2.4752	15.3595
2.4681	15.0529
2.4611	15.5717
2.4541	15.7562
2.4471	15.8146
2.4402	15.354
2.4333	15.4337
2.4265	16.1952
2.4197	15.9471
2.413	16.1066
2.4063	15.4239
2.3996	16.0306
2.3929	16.1215
2.3863	15.6073
2.3798	15.7016
2.3732	15.8333
2.3667	15.515
2.3603	15.5366
2.3538	15.4987
2.3474	16.092
2.3411	15.0672
2.3347	15.6677
2.3285	16.4687
2.3222	16.3524
2.316	16.5092
2.3098	16.4369
2.3036	16.6341
2.2975	17.6244
2.2914	17.0049
2.2854	16.8883
2.2793	17.2857
2.2733	17.2109
2.2674	16.8555
2.2614	16.9872
2.2555	16.9842
2.2497	16.3009
2.2438	17.0757
2.238	17.5409
2.2322	16.8062
2.2265	16.434
2.2208	16.8381
2.2151	16.1364
2.2094	16.3757
2.2038	17.8695
2.1982	16.6079
2.1926	17.0152
2.187	17.2147
2.1815	17.8262
2.176	18.0742
2.1706	17.7111
2.1651	17.3208
2.1597	18.3678
2.1543	18.6423
2.149	18.0711
2.1436	18.4536
2.1383	18.8782
2.1331	17.8376
2.1278	17.7235
2.1226	18.3546
2.1174	18.1705
2.1122	18.6967
2.1071	18.0533
2.1019	18.6749
2.0968	18.4445
2.0918	18.7181
2.0867	18.6472
2.0817	18.7137
2.0767	17.8011
2.0717	18.663
2.0667	18.5577
2.0618	18.2788
2.0569	18.1464
2.052	18.9623
2.0472	18.5964
2.0423	18.304
2.0375	18.4684
2.0327	17.5625
2.028	18.6627
2.0232	17.7211
2.0185	17.6659
2.0138	18.4974
2.0091	18.5483
2.0044	18.9354
1.9998	17.3718
