Name: Chalcocite Cu_2S
Type: Mineral
Class: Sulfides
Particle Size: 0-45um
Sample No.: S-8A
Owner: JPL
Origin: USA, Alaska, Kennecott.
Measurement: Hemispherical reflectance
X Units: Wavelength (micrometers)
Y Units: Reflectance (percent)
wavelength	value
2.5	4.09234
2.494	4.28461
2.488	4.26256
2.482	4.24977
2.476	4.21135
2.47	4.08029
2.464	4.28555
2.458	4.24116
2.452	4.16949
2.446	4.20969
2.44	4.1372
2.434	4.20747
2.428	4.10435
2.422	4.15573
2.416	4.13973
2.41	4.20181
2.404	4.1395
2.398	4.13079
2.392	4.10789
2.386	4.10747
2.38	4.08454
2.374	4.07851
2.368	4.13526
2.362	4.0724
2.356	4.095
2.35	4.0632
2.344	4.01363
2.338	4.05165
2.332	3.97379
2.326	3.9703
2.32	3.97391
2.314	3.95676
2.308	3.91875
2.302	3.96271
2.296	3.96528
2.29	3.8883
2.284	3.9197
2.278	3.90117
2.272	3.88617
2.266	3.8466
2.26	3.81325
2.254	3.7786
2.248	3.74285
2.242	3.77175
2.236	3.81708
2.23	3.74043
2.224	3.85682
2.218	3.76497
2.212	3.77284
2.206	3.70027
2.2	3.6807
2.194	3.69785
2.188	3.66338
2.182	3.60873
2.176	3.7197
2.17	3.71625
2.164	3.68798
2.158	3.65299
2.152	3.62165
2.146	3.58644
2.14	3.57872
2.134	3.50271
2.128	3.5594
2.122	3.52823
2.116	3.46398
2.11	3.38681
2.104	3.44301
2.098	3.35591
2.092	3.34761
2.086	3.30229
2.08	3.3408
2.074	3.30506
2.068	3.33916
2.062	3.2845
2.056	3.31816
2.05	3.24633
2.044	3.25823
2.038	3.23276
2.032	3.15122
2.026	3.19072
2.02	3.16326
2.014	3.14528
2.008	3.12199
2.002	3.09158
1.996	3.07358
1.99	3.05006
1.984	3.06218
1.978	2.96085
1.972	3.00743
1.966	3.01278
1.96	2.97669
1.954	2.96547
1.948	2.95875
1.942	2.82781
1.936	2.8708
1.93	2.8646
1.924	2.78498
1.918	2.83324
1.912	2.83929
1.906	2.82288
1.9	2.84163
1.894	2.76074
1.888	2.82301
1.882	2.74178
1.876	2.79491
1.87	2.71741
1.864	2.78705
1.858	2.74493
1.852	2.69563
1.846	2.68074
1.84	2.7152
1.834	2.64843
1.828	2.65709
1.822	2.58499
1.816	2.56185
1.81	2.5975
1.804	2.58729
1.798	2.59132
1.792	2.55016
1.786	2.52307
1.78	2.51495
1.774	2.52388
1.768	2.50402
1.762	2.46739
1.756	2.51934
1.75	2.48806
1.744	2.51479
1.738	2.48662
1.732	2.4143
1.726	2.38643
1.72	2.37182
1.714	2.3903
1.708	2.38197
1.702	2.34184
1.696	2.30993
1.69	2.33387
1.684	2.29455
1.678	2.39555
1.672	2.28285
1.666	2.27105
1.66	2.26617
1.654	2.32932
1.648	2.25068
1.642	2.3036
1.636	2.20354
1.63	2.17355
1.624	2.15078
1.618	2.21139
1.612	2.15892
1.606	2.11275
1.6	2.10361
1.594	2.10929
1.588	2.13694
1.582	2.03027
1.576	2.06773
1.57	2.01925
1.564	2.04165
1.558	1.98809
1.552	2.06343
1.546	1.98722
1.54	1.97212
1.534	1.96862
1.528	1.96433
1.522	1.91555
1.516	1.88675
1.51	1.86888
1.504	1.86938
1.498	1.89888
1.492	1.86071
1.486	1.85234
1.48	1.86478
1.474	1.82871
1.468	1.8024
1.462	1.76681
1.456	1.79873
1.45	1.79592
1.444	1.80625
1.438	1.73013
1.432	1.71997
1.426	1.71002
1.42	1.8156
1.414	1.66008
1.408	1.70074
1.402	1.77716
1.396	1.70084
1.39	1.66879
1.384	1.63433
1.378	1.70323
1.372	1.72145
1.366	1.72396
1.36	1.64928
1.354	1.7165
1.348	1.58361
1.342	1.63767
1.336	1.67049
1.33	1.64671
1.324	1.59462
1.318	1.5574
1.312	1.65666
1.306	1.63001
1.3	1.58821
1.294	1.6062
1.288	1.56012
1.282	1.60861
1.276	1.63397
1.27	1.65256
1.264	1.55961
1.258	1.62067
1.252	1.60215
1.246	1.65125
1.24	1.59567
1.234	1.69504
1.228	1.61574
1.222	1.63978
1.216	1.65651
1.21	1.59279
1.204	1.63891
1.198	1.70133
1.192	1.60635
1.186	1.71918
1.18	1.64632
1.174	1.63024
1.168	1.75903
1.162	1.78312
1.156	1.72236
1.15	1.71601
1.144	1.72365
1.138	1.75049
1.132	1.81375
1.126	1.77683
1.12	1.7832
1.114	1.78013
1.108	1.78295
1.102	1.82589
1.096	1.8591
1.09	1.88087
1.084	1.8053
1.078	1.88534
1.072	1.93893
1.066	1.94131
1.06	1.9317
1.054	1.91502
1.048	1.85045
1.042	1.98135
1.036	1.98965
1.03	1.90982
1.024	1.9628
1.018	1.96493
1.012	2.00056
1.006	2.05293
1	2.07381
0.994	2.08817
0.988	2.08525
0.982	2.11259
0.976	2.07889
0.97	2.14408
0.964	2.10356
0.958	2.18451
0.952	2.09752
0.946	2.1659
0.94	2.1953
0.934	2.13289
0.928	2.15232
0.922	2.21373
0.916	2.15603
0.91	2.18956
0.904	2.24716
0.898	2.17326
0.892	2.26184
0.886	2.22779
0.88	2.28262
0.874	2.26355
0.868	2.31624
0.862	2.23539
0.856	2.54617
0.85	2.55789
0.844	2.57599
0.838	2.58467
0.832	2.59981
0.826	2.61805
0.82	2.62044
0.814	2.63904
0.808	2.65582
0.802	2.66309
0.796	2.67229
0.79	2.68409
0.784	2.69081
0.778	2.70505
0.772	2.70883
0.766	2.72583
0.76	2.73238
0.754	2.7394
0.748	2.74509
0.742	2.75018
0.736	2.75518
0.73	2.75931
0.724	2.76219
0.718	2.76336
0.712	2.7654
0.706	2.7691
0.7	2.77173
0.694	2.77322
0.688	2.77465
0.682	2.78188
0.676	2.78316
0.67	2.78718
0.664	2.79227
0.658	2.79753
0.652	2.80536
0.646	2.81311
0.64	2.81729
0.634	2.82545
0.628	2.83184
0.622	2.8378
0.616	2.84697
0.61	2.85337
0.604	2.85634
0.598	2.8614
0.592	2.86197
0.586	2.86068
0.58	2.85568
0.574	2.85281
0.568	2.849
0.562	2.85273
0.556	2.85489
0.55	2.86407
0.544	2.87429
0.538	2.88707
0.532	2.90103
0.526	2.92009
0.52	2.94161
0.514	2.96604
0.508	2.99318
0.502	3.02417
0.496	3.05433
0.49	3.08467
0.484	3.11303
0.478	3.1427
0.472	3.17772
0.466	3.21877
0.46	3.25534
0.454	3.3028
0.448	3.34571
0.442	3.38734
0.436	3.4314
0.43	3.47975
0.424	3.52962
0.418	3.58358
0.412	3.64428
0.406	3.70629
0.4	3.77563
