Name: Tschermigite (NH_4)Al(SO_4)_2.12H_2O
Type: Mineral
Class: Sulfates
Particle Size: 125-500um
Sample No.: SO-6A
Owner: JPL
Origin: USA, Nevada, Esmeralda County, Silver Peak.
Measurement: Hemispherical reflectance
X Units: Wavelength (micrometers)
Y Units: Reflectance (percent)
wavelength	value
2.5	1.53443
2.494	1.46616
2.488	1.77167
2.482	1.67986
2.476	1.71098
2.47	1.70295
2.464	1.87387
2.458	1.86938
2.452	1.97018
2.446	1.86759
2.44	2.05204
2.434	2.11824
2.428	2.15946
2.422	2.27844
2.416	2.28942
2.41	2.49346
2.404	2.50387
2.398	2.60576
2.392	2.72145
2.386	2.84493
2.38	2.80514
2.374	2.85282
2.368	2.91083
2.362	3.03312
2.356	2.94028
2.35	3.01681
2.344	3.01102
2.338	3.02719
2.332	2.95378
2.326	3.00154
2.32	2.98858
2.314	2.91244
2.308	2.92095
2.302	2.98286
2.296	2.93937
2.29	3.00279
2.284	2.9488
2.278	2.97223
2.272	2.96314
2.266	2.9791
2.26	3.02606
2.254	3.00496
2.248	3.01109
2.242	2.96496
2.236	3.01911
2.23	2.97992
2.224	2.99137
2.218	2.99073
2.212	3.04854
2.206	2.85053
2.2	2.92135
2.194	2.85832
2.188	2.93129
2.182	2.95059
2.176	2.93709
2.17	2.92642
2.164	2.8996
2.158	2.91975
2.152	2.93212
2.146	2.90646
2.14	2.9666
2.134	2.97148
2.128	3.02865
2.122	3.00836
2.116	3.02742
2.11	3.09564
2.104	3.06858
2.098	3.14392
2.092	3.09782
2.086	3.15192
2.08	3.21657
2.074	3.17687
2.068	3.23054
2.062	3.20329
2.056	3.18648
2.05	3.15934
2.044	3.09288
2.038	3.00751
2.032	2.91969
2.026	2.83593
2.02	2.72538
2.014	2.60334
2.008	2.52129
2.002	2.27912
1.996	2.28136
1.99	2.23871
1.984	2.29161
1.978	2.23161
1.972	2.25962
1.966	2.2723
1.96	2.36865
1.954	2.40904
1.948	2.54757
1.942	2.59198
1.936	2.72281
1.93	2.82942
1.924	3.11102
1.918	3.30044
1.912	3.57227
1.906	3.96294
1.9	4.31796
1.894	4.62464
1.888	4.87242
1.882	5.1274
1.876	5.27239
1.87	5.46785
1.864	5.69919
1.858	5.78767
1.852	5.89216
1.846	6.03746
1.84	6.05033
1.834	6.17062
1.828	6.14982
1.822	6.1986
1.816	6.24433
1.81	6.13728
1.804	6.27992
1.798	6.34886
1.792	6.38063
1.786	6.52357
1.78	6.62813
1.774	6.82088
1.768	6.99327
1.762	7.15501
1.756	7.41761
1.75	7.60701
1.744	7.80433
1.738	8.08509
1.732	8.29923
1.726	8.4891
1.72	8.74714
1.714	9.08438
1.708	9.39019
1.702	9.72644
1.696	10.0107
1.69	10.3884
1.684	10.6893
1.678	11.0665
1.672	11.3228
1.666	11.5429
1.66	11.8716
1.654	12.066
1.648	12.3626
1.642	12.6353
1.636	12.6668
1.63	12.8612
1.624	13.0428
1.618	13.184
1.612	13.2427
1.606	13.284
1.6	13.3687
1.594	13.5013
1.588	13.4518
1.582	13.4698
1.576	13.5156
1.57	13.6399
1.564	13.7803
1.558	13.8636
1.552	14.083
1.546	14.3424
1.54	14.6448
1.534	15.0537
1.528	15.4512
1.522	15.8811
1.516	16.2587
1.51	16.6154
1.504	16.774
1.498	16.6956
1.492	16.5678
1.486	16.3525
1.48	16.4205
1.474	16.7672
1.468	17.3843
1.462	18.1471
1.456	19.1529
1.45	20.7151
1.444	22.8495
1.438	25.5387
1.432	28.6911
1.426	31.9603
1.42	35.2605
1.414	38.313
1.408	40.9716
1.402	43.1642
1.396	44.8958
1.39	46.0669
1.384	46.8151
1.378	47.348
1.372	47.8197
1.366	48.4673
1.36	49.0474
1.354	49.8865
1.348	50.8042
1.342	51.7862
1.336	52.8289
1.33	53.8963
1.324	54.9872
1.318	55.9224
1.312	56.7706
1.306	57.4204
1.3	57.9115
1.294	58.2422
1.288	58.3956
1.282	58.5173
1.276	58.4696
1.27	58.413
1.264	58.1913
1.258	58.1345
1.252	58.0542
1.246	58.1565
1.24	58.3307
1.234	58.6311
1.228	58.9335
1.222	59.2804
1.216	59.6775
1.21	60.2118
1.204	60.7468
1.198	61.4868
1.192	62.2986
1.186	63.0463
1.18	63.9861
1.174	65.0331
1.168	66.3393
1.162	68.0079
1.156	69.4187
1.15	70.7714
1.144	71.6337
1.138	72.353
1.132	72.8085
1.126	73.1466
1.12	73.5769
1.114	74.0076
1.108	74.3879
1.102	74.6529
1.096	75.0298
1.09	75.3544
1.084	75.6246
1.078	75.8083
1.072	76.0351
1.066	76.1299
1.06	75.9847
1.054	75.9301
1.048	75.7463
1.042	75.6381
1.036	75.3018
1.03	74.9998
1.024	74.6833
1.018	74.3945
1.012	74.2737
1.006	74.2705
1	74.4271
0.994	74.6377
0.988	75.053
0.982	75.6766
0.976	76.4602
0.97	77.2484
0.964	78.0152
0.958	78.5893
0.952	79.0151
0.946	79.3459
0.94	79.6155
0.934	79.8592
0.928	80.0308
0.922	80.1815
0.916	80.3215
0.91	80.4422
0.904	80.5531
0.898	80.6286
0.892	80.8698
0.886	81.0045
0.88	81.1511
0.874	81.2451
0.868	81.364
0.862	81.4632
0.856	82.3645
0.85	82.3986
0.844	82.4742
0.838	82.55
0.832	82.5573
0.826	82.6494
0.82	82.6476
0.814	82.7074
0.808	82.7645
0.802	82.7841
0.796	82.7108
0.79	82.6798
0.784	82.7321
0.778	82.7669
0.772	82.7682
0.766	82.8337
0.76	82.9177
0.754	82.9978
0.748	83.0883
0.742	83.1893
0.736	83.267
0.73	83.3013
0.724	83.4005
0.718	83.4341
0.712	83.4836
0.706	83.4852
0.7	83.5326
0.694	83.5305
0.688	83.5707
0.682	83.5616
0.676	83.5969
0.67	83.5942
0.664	83.5879
0.658	83.6114
0.652	83.597
0.646	83.5701
0.64	83.5645
0.634	83.5515
0.628	83.5314
0.622	83.4862
0.616	83.4474
0.61	83.4249
0.604	83.3901
0.598	83.3762
0.592	83.4051
0.586	83.3296
0.58	83.3199
0.574	83.2811
0.568	83.2427
0.562	83.1928
0.556	83.2312
0.55	83.2246
0.544	83.1995
0.538	83.1947
0.532	83.167
0.526	83.142
0.52	83.113
0.514	83.0917
0.508	83.0856
0.502	83.0658
0.496	83.0532
0.49	83.0661
0.484	83.0666
0.478	82.9502
0.472	82.8267
0.466	82.7513
0.46	82.6454
0.454	82.5147
0.448	82.3417
0.442	82.1545
0.436	81.8735
0.43	81.5961
0.424	81.2935
0.418	80.881
0.412	80.3525
0.406	79.8858
0.4	79.4841
