Name: Sanidine (Feldspar) (K,Na)AlSi_3O_8
Type: Mineral
Class: Silicates
Subclass: Tectosilicates
Particle Size: 0-45um
Sample No.: TS-14A
Owner: JPL
Origin: Unknown.
Measurement: Hemispherical reflectance
X Units: Wavelength (micrometers)
Y Units: Reflectance (percent)
wavelength	value
2.5	68.2999
2.494	68.119
2.488	68.4308
2.482	68.384
2.476	68.4305
2.47	68.8346
2.464	69.0991
2.458	69.1863
2.452	69.3606
2.446	69.4292
2.44	69.6153
2.434	69.8503
2.428	70.1254
2.422	70.5418
2.416	70.599
2.41	70.9565
2.404	71.1488
2.398	71.1888
2.392	71.3943
2.386	71.4563
2.38	71.5807
2.374	71.8339
2.368	71.9025
2.362	72.126
2.356	72.1639
2.35	72.2533
2.344	72.3965
2.338	72.533
2.332	72.5594
2.326	72.7175
2.32	72.8319
2.314	73.0109
2.308	73.1094
2.302	73.2633
2.296	73.4293
2.29	73.6212
2.284	73.6377
2.278	73.7796
2.272	73.7999
2.266	73.7741
2.26	73.7726
2.254	73.7994
2.248	73.8205
2.242	73.6734
2.236	73.6461
2.23	73.6562
2.224	73.311
2.218	72.8242
2.212	72.0202
2.206	71.7026
2.2	72.2147
2.194	72.6943
2.188	72.8937
2.182	73.2946
2.176	73.6624
2.17	74.0272
2.164	74.2951
2.158	74.6775
2.152	75.1009
2.146	75.4554
2.14	75.6774
2.134	75.7356
2.128	75.546
2.122	75.3368
2.116	74.9841
2.11	74.7736
2.104	74.5769
2.098	74.5153
2.092	74.5417
2.086	74.5784
2.08	74.6974
2.074	74.7492
2.068	74.7862
2.062	74.8057
2.056	74.8082
2.05	74.9061
2.044	74.9457
2.038	74.888
2.032	74.9081
2.026	74.88
2.02	74.7994
2.014	74.7678
2.008	74.7134
2.002	74.6386
1.996	74.3876
1.99	74.243
1.984	74.073
1.978	73.9669
1.972	73.8307
1.966	73.7542
1.96	73.573
1.954	73.5369
1.948	73.3129
1.942	73.3345
1.936	73.1889
1.93	73.1604
1.924	73.0647
1.918	72.96
1.912	72.9147
1.906	73.1653
1.9	73.8869
1.894	74.4953
1.888	75.0025
1.882	75.4472
1.876	75.678
1.87	75.8747
1.864	75.9948
1.858	75.9514
1.852	75.9784
1.846	75.9833
1.84	75.9052
1.834	75.9376
1.828	75.9219
1.822	75.9558
1.816	75.9832
1.81	75.9057
1.804	75.8861
1.798	75.9347
1.792	75.9345
1.786	75.8459
1.78	75.8786
1.774	75.8464
1.768	75.8685
1.762	75.8451
1.756	75.8263
1.75	75.9092
1.744	75.8566
1.738	75.8768
1.732	75.9113
1.726	75.904
1.72	75.8747
1.714	75.8805
1.708	75.8661
1.702	75.8188
1.696	75.8041
1.69	75.8896
1.684	75.8316
1.678	75.8479
1.672	75.7914
1.666	75.7452
1.66	75.802
1.654	75.7789
1.648	75.7669
1.642	75.6591
1.636	75.7334
1.63	75.6431
1.624	75.6828
1.618	75.7009
1.612	75.6316
1.606	75.6667
1.6	75.6901
1.594	75.6721
1.588	75.6008
1.582	75.6081
1.576	75.5577
1.57	75.5686
1.564	75.4725
1.558	75.5621
1.552	75.4765
1.546	75.4261
1.54	75.3613
1.534	75.3484
1.528	75.3297
1.522	75.2985
1.516	75.2497
1.51	75.1549
1.504	75.0953
1.498	75.0754
1.492	75.0828
1.486	74.9834
1.48	74.9639
1.474	74.942
1.468	74.8625
1.462	74.6804
1.456	74.7125
1.45	74.6637
1.444	74.6319
1.438	74.536
1.432	74.3493
1.426	74.0485
1.42	73.619
1.414	72.8885
1.408	73.3059
1.402	73.5735
1.396	73.7658
1.39	74.3014
1.384	74.5461
1.378	74.7592
1.372	74.749
1.366	74.8073
1.36	74.7821
1.354	74.7424
1.348	74.7439
1.342	74.7889
1.336	74.6751
1.33	74.7033
1.324	74.6785
1.318	74.6356
1.312	74.5502
1.306	74.6377
1.3	74.5742
1.294	74.5531
1.288	74.5403
1.282	74.5536
1.276	74.5271
1.27	74.5329
1.264	74.4124
1.258	74.4468
1.252	74.3704
1.246	74.3813
1.24	74.2887
1.234	74.2682
1.228	74.2644
1.222	74.2245
1.216	74.0726
1.21	74.172
1.204	74.1046
1.198	74.0032
1.192	74.0317
1.186	74.0465
1.18	74.063
1.174	73.8682
1.168	73.9224
1.162	73.8974
1.156	73.8388
1.15	73.8282
1.144	73.7352
1.138	73.7528
1.132	73.7046
1.126	73.6143
1.12	73.6239
1.114	73.5446
1.108	73.5289
1.102	73.4918
1.096	73.3643
1.09	73.4392
1.084	73.4452
1.078	73.3458
1.072	73.2248
1.066	73.2226
1.06	73.1874
1.054	73.1506
1.048	73.0694
1.042	72.9899
1.036	72.9186
1.03	72.8664
1.024	72.8654
1.018	72.8322
1.012	72.7595
1.006	72.6336
1	72.6135
0.994	72.5984
0.988	72.5027
0.982	72.4616
0.976	72.3387
0.97	72.3136
0.964	72.2473
0.958	72.1739
0.952	72.1551
0.946	72.123
0.94	72.0963
0.934	71.9536
0.928	71.931
0.922	71.9793
0.916	71.9354
0.91	71.9103
0.904	71.8603
0.898	71.8642
0.892	71.831
0.886	71.9247
0.88	71.9348
0.874	72.0423
0.868	72.0901
0.862	72.1454
0.856	72.3075
0.85	72.4204
0.844	72.3747
0.838	72.4249
0.832	72.4404
0.826	72.5103
0.82	72.5033
0.814	72.5207
0.808	72.535
0.802	72.5366
0.796	72.4496
0.79	72.4343
0.784	72.4283
0.778	72.3763
0.772	72.3162
0.766	72.2617
0.76	72.2118
0.754	72.1181
0.748	72.0078
0.742	71.9235
0.736	71.7995
0.73	71.705
0.724	71.537
0.718	71.3606
0.712	71.229
0.706	71.0228
0.7	70.8716
0.694	70.7135
0.688	70.5265
0.682	70.3669
0.676	70.165
0.67	69.9844
0.664	69.8156
0.658	69.6435
0.652	69.4686
0.646	69.2558
0.64	69.0713
0.634	68.8775
0.628	68.6823
0.622	68.4685
0.616	68.2367
0.61	67.962
0.604	67.6873
0.598	67.356
0.592	66.9968
0.586	66.5288
0.58	65.9893
0.574	65.3493
0.568	64.6234
0.562	63.8486
0.556	63.0042
0.55	62.1305
0.544	61.2723
0.538	60.4099
0.532	59.5681
0.526	58.741
0.52	57.9379
0.514	57.1587
0.508	56.4029
0.502	55.6698
0.496	54.9734
0.49	54.3139
0.484	53.7182
0.478	53.2245
0.472	52.8033
0.466	52.4195
0.46	51.9929
0.454	51.4943
0.448	50.8676
0.442	50.0762
0.436	49.2375
0.43	48.3597
0.424	47.5115
0.418	46.7728
0.412	46.1001
0.406	45.4772
0.4	44.8146
