Name: Hydroxyapophyllite KCa_4Si_8O_20(OH,F).8H_2O
Type: Mineral
Class: Silicates
Subclass: Phyllosilicates
Particle Size: 45-125um
Sample No.: PS-22A
Owner: JPL
Origin: India, Maharashtra, Poona
Measurement: Hemispherical reflectance
X Units: Wavelength (micrometers)
Y Units: Reflectance (percent)
wavelength	value
15.385	1.3431
15.116	1.2379
14.856	1.8309
14.605	2.5061
14.362	3.1904
14.128	3.4292
13.9	4.3033
13.68	4.439
13.467	4.985
13.26	5.9937
13.06	6.828
12.866	4.6194
12.677	5.3522
12.494	3.0709
12.316	1.4836
12.143	1.8857
11.974	2.6854
11.811	3.4899
11.651	4.1881
11.496	4.7038
11.345	5.1793
11.198	5.8524
11.055	6.3863
10.915	6.9832
10.779	7.744
10.647	8.2956
10.517	8.7299
10.39	9.696
10.267	10.9842
10.146	13.4649
10.029	19.6442
9.914	32.4436
9.801	43.0213
9.691	43.2174
9.584	43.03
9.479	38.6378
9.376	22.8183
9.275	2.5376
9.177	5.7214
9.08	17.7333
8.986	7.103
8.893	9.373
8.803	5.3073
8.714	1.6696
8.627	0.3853
8.542	0.098
8.458	0.0815
8.376	0.4063
8.296	0.4942
8.217	0.6704
8.139	0.7272
8.063	1.0526
7.989	1.3054
7.916	1.6555
7.844	1.876
7.773	2.1784
7.704	2.4829
7.636	2.7321
7.569	2.8242
7.503	2.8344
7.439	3.0636
7.375	3.1502
7.313	3.3503
7.252	3.4224
7.191	3.4099
7.132	3.5172
7.073	3.3864
7.016	3.4902
6.96	3.3691
6.904	3.2977
6.849	3.308
6.795	3.2137
6.742	3.1311
6.69	3.0145
6.639	2.9786
6.588	2.7474
6.538	2.5739
6.489	2.5564
6.441	2.4101
6.393	2.5513
6.346	2.741
6.3	2.6535
6.254	2.6579
6.209	2.5484
6.165	2.7222
6.121	2.6707
6.078	2.5469
6.036	2.6458
5.994	2.5452
5.953	2.3376
5.912	2.0574
5.872	1.3434
5.832	2.1447
5.793	3.3284
5.755	4.1075
5.716	4.6498
5.679	4.9816
5.642	5.0408
5.605	5.2344
5.569	5.71
5.533	6.3949
5.498	6.7568
5.463	6.8805
5.429	6.6852
5.395	6.3459
5.362	6.4266
5.329	6.3596
5.296	6.0264
5.264	6.2036
5.232	6.7203
5.2	7.3212
5.169	7.566
5.139	7.0939
5.108	7.1561
5.078	7.3734
5.049	7.3598
5.019	6.9687
4.99	6.7661
4.962	7.2102
4.933	7.8539
4.905	7.945
4.878	7.827
4.85	7.9511
4.823	7.8454
4.796	7.693
4.77	7.4779
4.744	7.1304
4.718	6.8437
4.692	6.6627
4.667	6.2029
4.642	5.8691
4.617	5.5546
4.592	5.2464
4.568	5.0831
4.544	4.934
4.52	4.9935
4.497	4.8828
4.474	4.9519
4.45	4.9646
4.428	5.0083
4.405	4.7511
4.383	4.6604
4.361	4.5325
4.339	4.7415
4.317	4.6675
4.296	4.5693
4.274	4.5741
4.253	4.9322
4.233	5.3184
4.212	5.9257
4.191	6.4193
4.171	6.8651
4.151	7.3161
4.131	7.4531
4.112	7.5787
4.092	7.5389
4.073	7.4383
4.054	7.4266
4.035	7.3106
4.016	7.2245
3.998	7.0218
3.979	6.895
3.961	6.877
3.943	6.609
3.925	6.5873
3.907	6.3576
3.89	6.2367
3.872	6.0694
3.855	5.7841
3.838	5.6689
3.821	5.3486
3.804	5.3526
3.787	5.1217
3.771	4.9329
3.754	4.7465
3.738	4.5766
3.722	4.4338
3.706	4.3923
3.69	4.3648
3.675	4.1312
3.659	4.03
3.644	3.936
3.628	3.8916
3.613	3.7737
3.598	3.8179
3.583	3.5676
3.568	3.6034
3.554	3.5676
3.539	3.4581
3.525	3.7015
3.51	3.4657
3.496	3.3712
3.482	3.4282
3.468	3.3479
3.454	3.3587
3.441	3.1711
3.427	3.3431
3.413	3.2847
3.4	3.1993
3.387	3.338
3.373	3.3305
3.36	3.3177
3.347	3.3987
3.334	3.1769
3.321	3.1438
3.309	2.9713
3.296	2.7696
3.284	2.7233
3.271	2.5639
3.259	2.5909
3.247	2.473
3.234	2.3502
3.222	2.4949
3.21	2.2963
3.199	2.3084
3.187	2.3102
3.175	2.1206
3.163	1.979
3.152	2.1886
3.14	1.9431
3.129	1.8911
3.118	1.7935
3.107	1.8354
3.095	1.8626
3.084	1.8131
3.073	1.8374
3.063	1.8181
3.052	2.166
3.041	2.0241
3.03	1.9773
3.02	1.961
3.009	2.2464
2.999	2.1776
2.988	2.0691
2.978	2.4613
2.968	2.1055
2.958	2.3251
2.948	2.4143
2.938	2.5
2.928	2.4419
2.918	2.6838
2.908	2.7071
2.898	3.1773
2.888	3.6531
2.879	3.8187
2.869	3.8742
2.86	4.2548
2.85	4.5075
2.841	4.9405
2.832	4.1272
2.822	3.0886
2.813	2.5338
2.804	2.2722
2.795	4.0025
2.786	5.2599
2.777	6.1967
2.768	6.9863
2.759	8.3419
2.751	10.1471
2.742	11.3442
2.733	12.4127
2.725	13.348
2.716	13.7894
2.707	15.3549
2.699	16.4438
2.691	17.3804
2.682	19.1051
2.674	19.9838
2.666	20.3211
2.658	19.5539
2.649	20.2792
2.641	20.848
2.633	22.3979
2.625	23.2978
2.617	23.1243
2.609	22.477
2.602	22.9021
2.594	24.8801
2.586	25.5149
2.578	26.2176
2.571	26.9042
2.563	27.2676
2.555	27.416
2.548	27.8673
2.54	27.5686
2.533	26.7279
2.525	25.4945
2.518	23.0332
2.511	22.9236
2.504	23.7142
2.496	23.5726
2.489	21.7843
2.482	19.7108
2.475	18.2874
2.468	17.6417
2.461	17.4592
2.454	18.0128
2.447	19.0434
2.44	21.2471
2.433	22.4309
2.426	20.9299
2.419	17.7979
2.413	16.561
2.406	15.8542
2.399	16.3131
2.393	16.1656
2.386	17.213
2.379	19.1108
2.373	22.3476
2.366	27.1957
2.36	32.3467
2.354	36.8272
2.347	39.9473
2.341	41.6202
2.334	42.4539
2.328	42.5513
2.322	42.7425
2.316	41.9969
2.309	41.2712
2.303	41.3758
2.297	42.8245
2.291	43.9525
2.285	44.1906
2.279	44.6173
2.273	45.0253
2.267	45.2346
2.261	45.2958
2.255	45.35
2.249	44.9802
2.244	44.8821
2.238	44.6382
2.232	44.1179
2.226	43.9919
2.22	43.5216
2.215	42.9022
2.209	42.3123
2.204	41.5838
2.198	40.8008
2.192	40.4932
2.187	39.9311
2.181	39.9067
2.176	39.5009
2.17	38.9535
2.165	38.1371
2.159	37.6247
2.154	37.4789
2.149	36.5863
2.143	35.8835
2.138	35.933
2.133	36.1736
2.128	36.6155
2.122	37.071
2.117	37.9584
2.112	38.5151
2.107	39.3737
2.102	39.6372
2.097	40.0225
2.091	40.3599
2.086	39.9543
2.081	39.8988
2.076	39.7706
2.071	40.2784
2.066	39.1509
2.062	38.9011
2.057	39.2156
2.052	39.3003
2.047	39.5782
2.042	39.3901
2.037	39.6203
2.032	39.1032
2.028	39.4361
2.023	39.4752
2.018	39.0548
2.014	39.0153
2.009	38.6435
2.004	38.7548
