Name: Brass plate
Type: Manmade materials
Class: Reflectance target
Particle Size: Solid
Sample No.: SN: ILF-17464-2-2
Owner: JPL
Origin: Labsphere, P.O. Box 70, Shaker Street, North Sutton, NH 03260
Description: Measurement made at center. Field Brass 1.
Measurement: Hemispherical Reflectance
X Units: Wavelength (micrometers)
Y Units: Reflectence (percent)
wavelength	value
15.3853	88.3067
15.1161	88.3903
14.8563	88.6056
14.6052	88.3576
14.3624	88.366
14.1276	88.1282
13.9004	88.1109
13.6803	88.2937
13.4671	88.3794
13.2604	88.3625
13.06	88.0819
12.8656	87.8106
12.6769	87.7536
12.4936	87.6012
12.3155	88.0051
12.1425	88.1443
11.9742	88.2501
11.8106	88.0623
11.6513	88.0118
11.4963	87.1877
11.3454	87.3308
11.1983	87.5039
11.0551	87.3014
10.9154	86.9988
10.7793	86.9231
10.6465	86.6763
10.5169	86.4148
10.3904	85.9918
10.267	85.7487
10.1464	85.5104
10.0287	85.2828
9.91364	85.0261
9.80119	85.1371
9.69128	85.1677
9.5838	85.1469
9.47867	85.2196
9.37583	85.5559
9.27519	85.8187
9.17669	85.9913
9.08027	86.1304
8.98585	86.3413
8.89337	86.5338
8.80277	86.5457
8.714	86.542
8.62701	86.6911
8.54174	87.0253
8.45813	87.3092
8.37614	87.6044
8.29573	87.8607
8.21685	88.0765
8.13946	88.2325
8.0635	88.4592
7.98896	88.5568
7.91578	88.947
7.84392	89.3835
7.77337	89.6121
7.70406	89.7059
7.63598	89.7399
7.5691	89.7453
7.50338	89.7482
7.43879	89.5512
7.37529	89.2346
7.31288	88.9832
7.25152	88.7565
7.19117	88.6177
7.13182	88.5331
7.07344	88.5867
7.01601	88.6346
6.95951	88.7635
6.90391	88.6941
6.84918	88.7542
6.79532	88.8683
6.74231	88.7701
6.69011	89.0816
6.63871	89.6795
6.5881	89.6596
6.53825	89.7234
6.48915	90.3095
6.44079	90.1286
6.39314	89.9891
6.34618	90.1726
6.29992	89.6419
6.25432	89.6384
6.20938	89.5496
6.16508	89.4673
6.12141	89.856
6.07835	90.0159
6.0359	90.1616
5.99403	90.3824
5.95274	90.2528
5.91201	90.2845
5.87184	90.4704
5.83221	90.4957
5.79311	90.4955
5.75453	90.6217
5.71646	90.6886
5.6789	90.6646
5.64182	90.834
5.60522	90.5873
5.5691	90.1895
5.53344	90.592
5.49823	90.5944
5.46347	90.848
5.42914	90.7523
5.39525	90.7611
5.36177	90.7
5.32871	90.6614
5.29605	90.7903
5.26379	90.7985
5.23192	90.8033
5.20044	90.9377
5.16933	90.9173
5.13859	90.8606
5.10821	90.8634
5.07819	90.8833
5.04852	90.9512
5.0192	90.9205
4.99021	90.8864
4.96156	90.9557
4.93324	91.0024
4.90524	91.0823
4.87755	91.0638
4.85017	91.0338
4.8231	91.1297
4.79633	91.0926
4.76986	91.0642
4.74367	91.1303
4.71777	91.0585
4.69216	91.0349
4.66682	90.9982
4.64175	91.0479
4.61695	91.0104
4.59241	91.0053
4.56814	91.0654
4.54411	91.0883
4.52034	91.0743
4.49682	91.0181
4.47354	91.0771
4.4505	91.0416
4.4277	91.0186
4.40513	90.9238
4.38278	91.103
4.36067	91.1161
4.33877	91.0623
4.3171	91.0884
4.29564	91.2086
4.27439	91.1754
4.25335	91.1072
4.23252	91.2509
4.21189	91.0578
4.19146	91.0094
4.17123	90.8851
4.15119	90.9303
4.13134	90.9807
4.11168	90.9649
4.09221	90.8336
4.07292	90.965
4.05382	90.8642
4.03489	90.9097
4.01614	90.6709
3.99756	90.4478
3.97915	90.4513
3.96091	90.3337
3.94284	90.5134
3.92493	90.5741
3.90718	90.5906
3.8896	90.6988
3.87217	90.732
3.8549	90.5523
3.83777	90.6987
3.82081	90.7322
3.80399	90.7097
3.78731	90.6888
3.77079	90.759
3.7544	90.7355
3.73816	90.7115
3.72206	90.7129
3.7061	90.8046
3.69027	90.7466
3.67458	90.7401
3.65902	90.6569
3.64359	90.7179
3.6283	90.7507
3.61312	90.5938
3.59808	90.5753
3.58316	90.5739
3.56836	90.5269
3.55369	90.6304
3.53914	90.4425
3.5247	90.4811
3.51038	90.2255
3.49618	90.0884
3.48209	90.0433
3.46812	89.9926
3.45425	90.0492
3.4405	90.02
3.42686	89.833
3.41332	89.7981
3.39989	89.9585
3.38657	89.971
3.37335	89.9236
3.36023	90.058
3.34721	89.9757
3.3343	90.1697
3.32148	90.2231
3.30876	90.0661
3.29614	90.159
3.28362	90.1774
3.27119	90.2551
3.25885	90.0773
3.24661	89.9195
3.23446	89.9923
3.22239	90.0802
3.21042	90.0913
3.19854	90.0281
3.18674	89.9869
3.17504	89.9704
3.16341	89.9117
3.15187	89.8315
3.14042	89.8431
3.12905	89.8941
3.11776	89.8163
3.10655	89.6402
3.09542	89.7598
3.08437	89.6281
3.0734	89.5977
3.06251	89.621
3.0517	89.7598
3.04096	89.6549
3.03029	89.6286
3.0197	89.382
3.00919	89.7702
2.99875	89.414
2.98838	89.6601
2.97808	89.4704
2.96785	89.5571
2.95769	89.5168
2.9476	89.4548
2.93758	89.4984
2.92763	89.4376
2.91775	89.4647
2.90793	89.4692
2.89817	89.4034
2.88849	89.5777
2.87886	89.5323
2.8693	89.6797
2.85981	89.4536
2.85038	89.4242
2.841	89.5222
2.83169	89.4249
2.82245	89.2917
2.81326	89.505
2.80413	89.2983
2.79506	89.4017
2.78605	89.3904
2.77709	89.3088
2.7682	89.294
2.75936	89.3697
2.75057	89.3033
2.74185	89.6302
2.73318	89.7017
2.72456	90.1502
2.71599	89.9128
2.70748	90.0713
2.69903	90.2891
2.69062	90.4996
2.68227	90.6324
2.67397	90.6048
2.66572	90.9496
2.65753	90.4871
2.64938	90.5678
2.64128	90.5612
2.63323	90.5622
2.62523	90.7006
2.61728	90.6801
2.60938	90.7125
2.60152	90.6955
2.59371	90.8864
2.58595	90.5697
2.57824	90.7079
2.57057	90.619
2.56294	90.7125
2.55536	90.5274
2.54783	90.5912
2.54034	90.6037
2.53289	90.5973
2.52549	90.6292
2.51813	90.3804
2.51082	90.4137
2.50354	90.4052
2.49631	90.5788
2.48912	90.4007
2.48197	90.4133
2.47486	90.523
2.46779	90.513
2.46077	90.5059
2.45378	90.3497
2.44683	90.3388
2.43992	90.291
2.43305	90.41
2.42622	90.4741
2.41943	90.523
2.41267	90.2779
2.40595	90.66
2.39928	90.5643
2.39263	90.2825
2.38603	90.4803
2.37946	90.4588
2.37292	90.4521
2.36642	90.4945
2.35996	90.4688
2.35353	90.4371
2.34714	90.3445
2.34078	90.196
2.33446	90.2486
2.32817	90.4104
2.32191	90.3343
2.31569	90.1705
2.3095	90.2532
2.30335	90.4207
2.29722	90.3403
2.29113	90.2734
2.28507	90.2731
2.27905	90.0908
2.27305	90.2485
2.26709	90.2046
2.26116	90.4221
2.25526	90.3575
2.24939	90.2548
2.24355	90.3307
2.23774	90.2985
2.23196	90.2233
2.22621	90.3881
2.22049	90.4177
2.21479	90.163
2.20913	90.1675
2.2035	90.3065
2.19789	90.1433
2.19232	90.2122
2.18677	90.1919
2.18125	90.3339
2.17576	90.0619
2.17029	90.1312
2.16486	90.2224
2.15945	90.2922
2.15406	90.3798
2.14871	90.1021
2.14338	90.2775
2.13808	90.1154
2.1328	90.2116
2.12755	90.1722
2.12232	90.5286
2.11712	89.971
2.11195	90.2928
2.1068	90.0392
2.10168	90.1441
2.09658	90.0556
2.0915	90.1289
2.08645	90.1454
2.08143	89.9016
2.07643	90.1473
2.07145	90.0907
2.06649	90.2209
2.06156	90.0994
2.05666	90.0718
2.05177	89.9323
2.04691	90.2454
2.04208	89.7522
2.03726	89.8986
2.03247	89.9774
2.0277	90.2936
2.02295	90.3282
2.01823	89.9493
2.01353	90.1335
2.00885	89.9581
2.00419	90.0963
