Name: Titanite (Sphene) CaTiSiO_5
Type: Mineral
Class: Silicates
Subclass: Nesosilicates
Particle Size: 0-45um
Sample No.: NS-7A
Owner: JPL
Wavelength Range: VNIR-SWIR
Origin: Brazil, Minas Gerais, Capelinha
Measurement: Hemispherical reflectance
X Units: Wavelength (micrometers)
Y Units: Reflectance (percent)
wavelength	value
0.4	56.6
0.403	57.67
0.406	59.15
0.409	60.4
0.412	61.35
0.415	62.32
0.418	63.31
0.421	64.4
0.424	65.13
0.427	65.93
0.43	66.96
0.433	67.9
0.436	68.61
0.439	69.09
0.442	69.75
0.445	70.41
0.448	71.05
0.451	71.34
0.454	71.84
0.457	72.58
0.46	72.82
0.463	73.3
0.466	73.88
0.469	74.15
0.472	74.53
0.475	74.93
0.478	75.27
0.481	75.73
0.484	76.1
0.487	76.31
0.49	76.74
0.493	77.27
0.496	77.47
0.499	77.88
0.502	78.21
0.505	78.35
0.508	79
0.511	79.15
0.514	79.28
0.517	79.52
0.52	79.97
0.523	80.13
0.526	80.34
0.529	80.52
0.532	80.62
0.535	81.02
0.538	81.02
0.541	81.18
0.544	81.48
0.547	81.55
0.55	81.78
0.553	81.92
0.556	81.92
0.559	82.04
0.562	82.52
0.565	82.48
0.568	82.44
0.571	82.48
0.574	82.14
0.577	82.29
0.58	82.27
0.583	82.39
0.586	82.36
0.589	82.5
0.592	82.39
0.595	82.43
0.598	82.76
0.601	82.65
0.604	82.61
0.607	82.79
0.61	82.99
0.613	82.91
0.616	82.91
0.619	82.89
0.622	83.01
0.625	83.23
0.628	83.19
0.631	83.19
0.634	83.4
0.637	83.55
0.64	83.7
0.643	83.7
0.646	83.81
0.649	83.79
0.652	84.23
0.655	84.15
0.658	84.04
0.661	84.42
0.664	84.46
0.667	84.56
0.67	84.75
0.673	84.78
0.676	84.75
0.679	84.8
0.682	84.99
0.685	85.2
0.688	85.09
0.691	85.1
0.694	85.32
0.697	85.33
0.7	85.3
0.703	85.38
0.706	85.34
0.709	85.32
0.712	85.43
0.715	85.54
0.718	85.47
0.721	85.62
0.724	85.55
0.727	85.43
0.73	85.84
0.733	85.79
0.736	85.73
0.739	85.6
0.742	85.84
0.745	85.91
0.748	85.85
0.751	85.75
0.754	85.69
0.757	85.84
0.76	85.97
0.763	85.88
0.766	85.86
0.769	86.04
0.772	86
0.775	85.97
0.778	85.95
0.781	85.95
0.784	86.17
0.787	86.11
0.79	86.13
0.793	86.16
0.796	86.38
0.799	86.34
0.808	86.37
0.82	86.37
0.832	86.28
0.844	86.48
0.856	86.57
0.868	86.58
0.88	86.41
0.892	86.4
0.904	86.28
0.916	86.26
0.928	86.15
0.94	86.28
0.952	86.32
0.964	86.32
0.976	86.15
0.988	85.99
1	86
1.012	86.01
1.024	85.91
1.036	85.78
1.048	85.63
1.06	85.62
1.072	85.55
1.084	85.59
1.096	85.59
1.108	85.54
1.12	85.47
1.132	85.42
1.144	85.16
1.156	85.11
1.168	84.98
1.18	84.94
1.192	84.76
1.204	84.76
1.216	84.7
1.228	84.64
1.24	84.57
1.252	84.56
1.264	84.42
1.276	84.43
1.288	84.37
1.3	84.15
1.312	84.12
1.324	83.93
1.336	83.98
1.348	83.86
1.36	83.88
1.372	83.84
1.384	83.69
1.396	83.63
1.408	83.5
1.42	83.33
1.432	83.31
1.444	83.33
1.456	83.2
1.468	83.14
1.48	83.15
1.492	83.39
1.504	83.38
1.516	83.38
1.528	83.48
1.54	83.54
1.552	83.4
1.564	83.53
1.576	83.6
1.588	83.55
1.6	83.58
1.612	83.57
1.624	83.67
1.636	83.63
1.648	83.69
1.66	83.78
1.672	83.79
1.684	83.81
1.696	83.83
1.708	83.88
1.72	83.85
1.732	83.97
1.744	83.9
1.756	83.84
1.768	83.83
1.78	83.88
1.792	83.87
1.804	84.02
1.816	83.93
1.828	83.85
1.84	83.87
1.852	83.9
1.864	83.95
1.876	83.91
1.888	83.66
1.9	83.49
1.912	83.31
1.924	83.23
1.936	83.21
1.948	83.16
1.96	83.32
1.972	83.48
1.984	83.7
1.996	83.95
2.008	84.04
2.02	84.22
2.032	84.33
2.044	84.33
2.056	84.47
2.068	84.49
2.08	84.57
2.092	84.68
2.104	84.83
2.116	84.98
2.128	85.02
2.14	84.83
2.152	84.51
2.164	83.97
2.176	82.49
2.188	80
2.2	78.65
2.212	79.03
2.224	79.83
2.236	80
2.248	79.73
2.26	79.45
2.272	79.97
2.284	80.71
2.296	81.4
2.308	82.1
2.32	82.8
2.332	83.23
2.344	83.23
2.356	82.78
2.368	81.38
2.38	78.91
2.392	76.63
2.404	76.09
2.416	77.28
2.428	79.04
2.44	80.22
2.452	80.62
2.464	80.28
2.476	79.9
2.488	79.7
2.5	79.62
