Name: Prehnite Ca_2Al_2Si_3O_10(OH)_2
Type: Mineral
Class: Silicates
Subclass: Phyllosilicates
Particle Size: 125-500um
Sample No.: PS-21A
Owner: JPL
Origin: USA, Virginia, Centerville.
Measurement: Hemispherical reflectance
X Units: Wavelength (micrometers)
Y Units: Reflectance (percent)
wavelength	value
2.5	18.185
2.494	18.2327
2.488	18.3442
2.482	18.5376
2.476	18.6739
2.47	19.0014
2.464	19.9509
2.458	21.0541
2.452	21.9681
2.446	22.6055
2.44	22.4076
2.434	21.4517
2.428	19.9736
2.422	18.214
2.416	16.6413
2.41	15.264
2.404	14.2474
2.398	13.3426
2.392	12.6856
2.386	12.0408
2.38	11.8613
2.374	11.6049
2.368	11.1278
2.362	10.437
2.356	10.0689
2.35	10.6169
2.344	11.515
2.338	11.9004
2.332	12.2576
2.326	13.9392
2.32	17.8871
2.314	23.5941
2.308	27.8762
2.302	29.2913
2.296	28.178
2.29	26.5341
2.284	25.6062
2.278	25.7634
2.272	27.4521
2.266	29.8701
2.26	31.6303
2.254	31.7611
2.248	29.9682
2.242	27.2239
2.236	25.343
2.23	25.8377
2.224	28.7393
2.218	32.6943
2.212	37.2126
2.206	42.3681
2.2	46.8964
2.194	49.7016
2.188	51.2937
2.182	52.2399
2.176	53.204
2.17	54.2506
2.164	55.2296
2.158	55.8603
2.152	56.4511
2.146	57.0738
2.14	57.6292
2.134	57.9511
2.128	58.1794
2.122	58.4171
2.116	58.6914
2.11	59.0069
2.104	59.3094
2.098	59.74
2.092	60.3782
2.086	61.0591
2.08	61.3742
2.074	61.6692
2.068	61.688
2.062	61.8035
2.056	61.9071
2.05	62.0176
2.044	62.0051
2.038	61.8877
2.032	61.5104
2.026	61.1834
2.02	61.0605
2.014	61.2141
2.008	61.2394
2.002	61.2513
1.996	61.6225
1.99	62.0063
1.984	61.9899
1.978	62.0177
1.972	61.6164
1.966	60.8349
1.96	60.5153
1.954	60.2893
1.948	59.72
1.942	58.8572
1.936	58.1793
1.93	58.0564
1.924	58.3454
1.918	58.4869
1.912	58.1041
1.906	57.6022
1.9	58.0142
1.894	59.2851
1.888	59.8535
1.882	59.3573
1.876	59.9979
1.87	62.3015
1.864	64.2974
1.858	65.3969
1.852	65.9607
1.846	66.0611
1.84	66.0717
1.834	66.4675
1.828	67.3935
1.822	68.5776
1.816	69.7625
1.81	70.6431
1.804	71.3867
1.798	71.6499
1.792	71.9967
1.786	72.0308
1.78	71.9499
1.774	71.739
1.768	71.5125
1.762	71.1716
1.756	70.9723
1.75	70.9661
1.744	70.9759
1.738	71.2739
1.732	71.6147
1.726	72.0647
1.72	72.53
1.714	72.9512
1.708	73.1868
1.702	73.4532
1.696	73.7316
1.69	74.107
1.684	74.2234
1.678	74.4194
1.672	74.4398
1.666	74.5728
1.66	74.7754
1.654	74.8181
1.648	74.7286
1.642	74.6959
1.636	74.7029
1.63	74.611
1.624	74.3889
1.618	74.3434
1.612	74.5374
1.606	74.5805
1.6	74.6033
1.594	74.4859
1.588	74.6383
1.582	74.6255
1.576	74.6263
1.57	74.3921
1.564	74.1157
1.558	73.6934
1.552	73.511
1.546	73.215
1.54	72.878
1.534	72.4444
1.528	71.8314
1.522	70.6078
1.516	68.5536
1.51	65.5738
1.504	61.1233
1.498	53.8459
1.492	47.3801
1.486	42.165
1.48	30.8359
1.474	30.7698
1.468	46.8099
1.462	57.159
1.456	60.0875
1.45	62.4957
1.444	64.446
1.438	64.5134
1.432	65.1231
1.426	69.9689
1.42	71.489
1.414	72.2594
1.408	72.7952
1.402	73.4928
1.396	74.3655
1.39	74.9386
1.384	75.3462
1.378	75.5748
1.372	75.7215
1.366	75.9151
1.36	75.9088
1.354	76.0894
1.348	76.0146
1.342	75.8321
1.336	75.4424
1.33	75.0095
1.324	74.6627
1.318	74.4512
1.312	73.9948
1.306	72.3526
1.3	72.5265
1.294	72.9942
1.288	71.3207
1.282	72.744
1.276	75.0387
1.27	75.425
1.264	75.892
1.258	76.0517
1.252	76.1113
1.246	76.1241
1.24	76.113
1.234	76.0572
1.228	75.9798
1.222	75.8421
1.216	75.7444
1.21	75.7037
1.204	75.789
1.198	75.7029
1.192	75.6488
1.186	75.6921
1.18	75.5764
1.174	75.4743
1.168	75.3833
1.162	75.1949
1.156	75.1154
1.15	75.1499
1.144	75.1184
1.138	75.0584
1.132	75.1059
1.126	75.0229
1.12	74.9524
1.114	74.9188
1.108	74.7795
1.102	74.6038
1.096	74.6649
1.09	74.5281
1.084	74.4471
1.078	74.2844
1.072	74.1881
1.066	74.0933
1.06	73.9747
1.054	73.8986
1.048	73.7818
1.042	73.6071
1.036	73.2681
1.03	72.8992
1.024	72.3362
1.018	71.4514
1.012	71.274
1.006	71.772
1	72.0692
0.994	72.2732
0.988	72.4179
0.982	72.4968
0.976	72.585
0.97	72.6031
0.964	72.6185
0.958	72.74
0.952	72.6873
0.946	72.7376
0.94	72.7244
0.934	72.7337
0.928	72.7926
0.922	72.766
0.916	72.8869
0.91	73.0888
0.904	73.2251
0.898	73.3148
0.892	73.3548
0.886	73.4158
0.88	73.6433
0.874	73.6809
0.868	73.8048
0.862	74.036
0.856	73.8277
0.85	74.0287
0.844	74.2153
0.838	74.3995
0.832	74.5785
0.826	74.7824
0.82	74.9871
0.814	75.1725
0.808	75.3157
0.802	75.4843
0.796	75.5942
0.79	75.6858
0.784	75.7813
0.778	75.795
0.772	75.9523
0.766	76.0658
0.76	76.2068
0.754	76.2643
0.748	76.2787
0.742	76.2866
0.736	76.3363
0.73	76.2825
0.724	76.2188
0.718	76.1641
0.712	76.0647
0.706	75.9736
0.7	75.8435
0.694	75.7222
0.688	75.5638
0.682	75.4483
0.676	75.3015
0.67	75.1717
0.664	75.0626
0.658	74.9377
0.652	74.8173
0.646	74.6856
0.64	74.5859
0.634	74.5021
0.628	74.4034
0.622	74.3461
0.616	74.2828
0.61	74.2686
0.604	74.2864
0.598	74.3747
0.592	74.5399
0.586	74.6983
0.58	74.8685
0.574	75.1125
0.568	75.3356
0.562	75.5879
0.556	75.7776
0.55	75.9778
0.544	76.1485
0.538	76.2835
0.532	76.4362
0.526	76.4735
0.52	76.5117
0.514	76.4723
0.508	76.3577
0.502	76.1854
0.496	75.947
0.49	75.6456
0.484	75.2674
0.478	74.9934
0.472	74.5985
0.466	74.0806
0.46	73.4411
0.454	72.5345
0.448	71.0626
0.442	68.5956
0.436	65.4998
0.43	62.5
0.424	62.4704
0.418	63.849
0.412	64.9987
0.406	65.1794
0.4	64.6891
