Name: Diopside CaMg(SiO_3)_2
Type: Mineral
Class: Silicates
Subclass: Inosilicates
Particle Size: 125-500um
Sample No.: IN-9B
Owner: JPL
Wavelength Range: VNIR-SWIR
Origin: Canada, Quebec
Measurement: Hemispherical reflectance
X Units: Wavelength (micrometers)
Y Units: Reflectance (percent)
wavelength	value
0.4	7.57
0.403	7.86
0.406	7.98
0.409	7.8
0.412	7.98
0.415	8.16
0.418	8.22
0.421	8.57
0.424	8.65
0.427	8.81
0.43	9.11
0.433	9.33
0.436	9.5
0.439	9.87
0.442	10.07
0.445	10.27
0.448	10.46
0.451	10.65
0.454	10.69
0.457	10.77
0.46	10.91
0.463	11.01
0.466	11.12
0.469	11.29
0.472	11.29
0.475	11.46
0.478	11.73
0.481	11.85
0.484	12
0.487	12.37
0.49	12.58
0.493	12.73
0.496	12.9
0.499	13.16
0.502	13.41
0.505	13.83
0.508	14.16
0.511	14.14
0.514	14.35
0.517	14.54
0.52	14.49
0.523	14.76
0.526	14.91
0.529	15.27
0.532	15.38
0.535	15.39
0.538	15.35
0.541	15.5
0.544	15.5
0.547	15.45
0.55	15.53
0.553	15.59
0.556	15.63
0.559	15.62
0.562	15.53
0.565	15.32
0.568	15.34
0.571	15.43
0.574	15.3
0.577	15.42
0.58	15.36
0.583	15.25
0.586	15.15
0.589	15.21
0.592	15.12
0.595	15.12
0.598	15.2
0.601	15.14
0.604	15.14
0.607	15.24
0.61	15.23
0.613	15.1
0.616	15.22
0.619	15.23
0.622	15.15
0.625	15.2
0.628	15.14
0.631	15.22
0.634	15.24
0.637	15.16
0.64	15.29
0.643	15.22
0.646	15.33
0.649	15.2
0.652	15.39
0.655	15.36
0.658	15.4
0.661	15.34
0.664	15.5
0.667	15.39
0.67	15.37
0.673	15.5
0.676	15.36
0.679	15.57
0.682	15.5
0.685	15.54
0.688	15.51
0.691	15.63
0.694	15.5
0.697	15.64
0.7	15.66
0.703	15.72
0.706	15.83
0.709	15.84
0.712	15.82
0.715	15.98
0.718	16.04
0.721	16.13
0.724	16.05
0.727	16.16
0.73	16.22
0.733	16.23
0.736	16.33
0.739	16.37
0.742	16.52
0.745	16.68
0.748	16.64
0.751	16.74
0.754	16.91
0.757	17.03
0.76	17.04
0.763	17.17
0.766	17.3
0.769	17.4
0.772	17.43
0.775	17.59
0.778	17.61
0.781	17.7
0.784	17.75
0.787	17.82
0.79	17.82
0.793	17.99
0.796	18.08
0.799	18.32
0.808	18.49
0.82	18.5
0.832	18.46
0.844	18.24
0.856	17.97
0.868	17.81
0.88	17.69
0.892	17.58
0.904	17.38
0.916	17
0.928	16.71
0.94	16.35
0.952	15.88
0.964	15.49
0.976	14.78
0.988	14.14
1	13.72
1.012	13.24
1.024	12.84
1.036	12.67
1.048	12.56
1.06	12.65
1.072	13.03
1.084	13.67
1.096	14.45
1.108	15.37
1.12	16.21
1.132	17.25
1.144	18.26
1.156	19.03
1.168	19.7
1.18	20.49
1.192	21.24
1.204	21.94
1.216	22.47
1.228	23.07
1.24	23.71
1.252	24.39
1.264	25.05
1.276	25.56
1.288	26.11
1.3	26.59
1.312	27.25
1.324	27.88
1.336	28.4
1.348	28.79
1.36	29.19
1.372	29.51
1.384	28.69
1.396	28.27
1.408	30.07
1.42	30.83
1.432	31.31
1.444	31.79
1.456	32.43
1.468	32.78
1.48	33.27
1.492	33.66
1.504	34.03
1.516	34.43
1.528	34.89
1.54	35.14
1.552	35.42
1.564	35.67
1.576	36.01
1.588	36.3
1.6	36.58
1.612	36.74
1.624	36.93
1.636	37.15
1.648	37.36
1.66	37.67
1.672	37.78
1.684	37.89
1.696	37.9
1.708	38.12
1.72	38.24
1.732	38.29
1.744	38.38
1.756	38.28
1.768	38.32
1.78	38.35
1.792	38.43
1.804	38.31
1.816	38.2
1.828	38.17
1.84	38.18
1.852	37.89
1.864	37.63
1.876	36.93
1.888	35.77
1.9	34.09
1.912	33.54
1.924	33.89
1.936	34.09
1.948	34.09
1.96	34.15
1.972	34.24
1.984	34.45
1.996	34.54
2.008	34.35
2.02	34.3
2.032	34.2
2.044	34.09
2.056	33.65
2.068	33.4
2.08	33.17
2.092	32.76
2.104	32.49
2.116	32.25
2.128	32.02
2.14	31.62
2.152	31.16
2.164	30.84
2.176	30.56
2.188	30.01
2.2	29.67
2.212	29.39
2.224	28.91
2.236	28.54
2.248	28.39
2.26	28.04
2.272	27.19
2.284	25.95
2.296	24.57
2.308	23.63
2.32	24.14
2.332	25.48
2.344	26.44
2.356	26.57
2.368	26.24
2.38	25.86
2.392	25.95
2.404	26.41
2.416	26.8
2.428	26.91
2.44	27.07
2.452	27.24
2.464	27.42
2.476	27.49
2.488	27.91
2.5	28.26
