Name: Quartz Felsite Porphyry
Type: Rock
Class: Igneous
Subclass: Felsic
Particle Size: Solid surface
Sample No.: Ward09.txt
Owner: JPL
Origin: Ward's Collection of American Rocks.  Sample locality - Marblehead, Essex County, Massachusetts.
Description: A dark gray, compact, porphyritic rock with phenocrysts of
Measurement: Hemispherical reflectance
X Units: Wavelength (micrometers)
Y Units: Reflectance (percent)
wavelength	value
2.5	6.94
2.494	6.98774
2.488	7.21288
2.482	7.15732
2.476	7.16046
2.47	7.14303
2.464	7.08264
2.458	7.1856
2.452	7.12319
2.446	7.07312
2.44	7.12388
2.434	7.08104
2.428	7.09488
2.422	7.11506
2.416	7.02948
2.41	7.09046
2.404	7.13688
2.398	7.15532
2.392	7.0891
2.386	7.0754
2.38	7.01243
2.374	7.04239
2.368	7.11681
2.362	7.07499
2.356	7.03652
2.35	7.07885
2.344	7.03741
2.338	7.07068
2.332	6.97479
2.326	7.0344
2.32	7.02848
2.314	7.03944
2.308	7.07122
2.302	7.01471
2.296	7.04325
2.29	7.05542
2.284	7.037
2.278	7.01222
2.272	6.99159
2.266	7.02598
2.26	7.00146
2.254	6.93269
2.248	6.97509
2.242	6.9035
2.236	6.96677
2.23	6.88219
2.224	6.98048
2.218	7.01291
2.212	7.13398
2.206	6.95218
2.2	7.04
2.194	7.04388
2.188	7.05573
2.182	7.07902
2.176	7.12475
2.17	7.14027
2.164	7.16295
2.158	7.08879
2.152	7.13445
2.146	7.14274
2.14	7.11785
2.134	7.12021
2.128	7.13436
2.122	7.10862
2.116	7.09245
2.11	7.03332
2.104	6.99619
2.098	6.96962
2.092	6.98354
2.086	6.99786
2.08	6.95579
2.074	6.90454
2.068	6.9543
2.062	6.98914
2.056	6.99445
2.05	6.92985
2.044	7.00481
2.038	6.95204
2.032	6.9281
2.026	6.97934
2.02	6.98758
2.014	7.00369
2.008	7.00089
2.002	6.95132
1.996	7.0072
1.99	7.00556
1.984	6.99459
1.978	6.96101
1.972	7.04327
1.966	6.99746
1.96	7.11402
1.954	6.98425
1.948	7.06848
1.942	7.08807
1.936	6.98625
1.93	7.04342
1.924	6.94466
1.918	7.04354
1.912	6.98023
1.906	7.00411
1.9	6.90936
1.894	6.96346
1.888	6.95057
1.882	6.9887
1.876	6.99767
1.87	6.87709
1.864	6.92313
1.858	6.9183
1.852	6.98513
1.846	7.00912
1.84	7.00508
1.834	6.9497
1.828	6.97147
1.822	6.98366
1.816	6.89537
1.81	6.95306
1.804	6.98516
1.798	6.95677
1.792	6.93319
1.786	6.95482
1.78	6.93588
1.774	6.96289
1.768	6.98018
1.762	6.91043
1.756	6.9289
1.75	6.95245
1.744	6.96512
1.738	6.91988
1.732	6.94205
1.726	6.94529
1.72	6.84169
1.714	7.00869
1.708	6.95457
1.702	6.94882
1.696	6.85999
1.69	6.85848
1.684	6.95458
1.678	6.88461
1.672	6.9371
1.666	6.89141
1.66	7.02207
1.654	6.89403
1.648	7.00733
1.642	6.90979
1.636	6.88132
1.63	6.93267
1.624	6.95645
1.618	7.01932
1.612	7.0467
1.606	6.98883
1.6	7.00125
1.594	6.93234
1.588	7.03904
1.582	7.01803
1.576	7.04686
1.57	7.0495
1.564	7.08417
1.558	7.06501
1.552	7.1038
1.546	7.10843
1.54	7.11885
1.534	7.10346
1.528	7.11985
1.522	7.12502
1.516	7.13648
1.51	7.14879
1.504	7.17318
1.498	7.10656
1.492	7.21269
1.486	7.22684
1.48	7.20597
1.474	7.26725
1.468	7.23922
1.462	7.25104
1.456	7.28597
1.45	7.31366
1.444	7.29091
1.438	7.38713
1.432	7.37085
1.426	7.34927
1.42	7.34597
1.414	7.3527
1.408	7.44162
1.402	7.49006
1.396	7.4528
1.39	7.57015
1.384	7.53615
1.378	7.62164
1.372	7.60104
1.366	7.67115
1.36	7.63141
1.354	7.62446
1.348	7.68177
1.342	7.60254
1.336	7.68965
1.33	7.77431
1.324	7.71574
1.318	7.70741
1.312	7.74654
1.306	7.79267
1.3	7.82676
1.294	7.81839
1.288	7.8634
1.282	7.88472
1.276	7.95573
1.27	7.8546
1.264	8.01805
1.258	7.99031
1.252	8.02497
1.246	8.09999
1.24	8.06335
1.234	8.1151
1.228	8.12822
1.222	8.21031
1.216	8.22659
1.21	8.23905
1.204	8.31423
1.198	8.35221
1.192	8.36116
1.186	8.47748
1.18	8.44681
1.174	8.50185
1.168	8.49288
1.162	8.63861
1.156	8.67426
1.15	8.58395
1.144	8.68727
1.138	8.8692
1.132	8.82871
1.126	8.942
1.12	8.97389
1.114	8.97437
1.108	9.13984
1.102	9.13376
1.096	9.16148
1.09	9.17405
1.084	9.26248
1.078	9.36313
1.072	9.35499
1.066	9.46737
1.06	9.57719
1.054	9.6385
1.048	9.60666
1.042	9.72181
1.036	9.8433
1.03	9.86844
1.024	9.96216
1.018	10.0177
1.012	9.9621
1.006	10.1217
1	10.1466
0.994	10.1714
0.988	10.2291
0.982	10.2949
0.976	10.3316
0.97	10.3709
0.964	10.3394
0.958	10.3388
0.952	10.4208
0.946	10.4122
0.94	10.3543
0.934	10.4072
0.928	10.4193
0.922	10.4368
0.916	10.3815
0.91	10.3951
0.904	10.3897
0.898	10.369
0.892	10.3859
0.886	10.4763
0.88	10.5131
0.874	10.5301
0.868	10.4535
0.862	10.4265
0.856	10.347
0.85	10.3894
0.844	10.4149
0.838	10.4566
0.832	10.4709
0.826	10.4807
0.82	10.4923
0.814	10.4839
0.808	10.4824
0.802	10.4713
0.796	10.4429
0.79	10.4235
0.784	10.4053
0.778	10.3649
0.772	10.3205
0.766	10.2794
0.76	10.2216
0.754	10.1556
0.748	10.0752
0.742	10.0017
0.736	9.92272
0.73	9.84326
0.724	9.75875
0.718	9.67942
0.712	9.59843
0.706	9.52597
0.7	9.4566
0.694	9.39588
0.688	9.34232
0.682	9.29027
0.676	9.24374
0.67	9.20374
0.664	9.17449
0.658	9.14837
0.652	9.12619
0.646	9.10188
0.64	9.08803
0.634	9.07891
0.628	9.06744
0.622	9.05765
0.616	9.05509
0.61	9.04646
0.604	9.04528
0.598	9.03616
0.592	9.03455
0.586	9.02186
0.58	9.00611
0.574	8.9928
0.568	8.98729
0.562	8.98579
0.556	8.94482
0.55	8.94249
0.544	8.95199
0.538	8.96482
0.532	8.9835
0.526	9.00844
0.52	9.03324
0.514	9.05157
0.508	9.05452
0.502	9.0488
0.496	9.03545
0.49	9.01756
0.484	8.99748
0.478	9.10363
0.472	9.15169
0.466	9.20742
0.46	9.24244
0.454	9.26413
0.448	9.27411
0.442	9.27961
0.436	9.29902
0.43	9.307
0.424	9.3002
0.418	9.29425
0.412	9.30856
0.406	9.31182
0.4	9.32011
