Name: Quartz SiO_2
Type: Mineral
Class: Silicates
Subclass: Tectosilicates
Particle Size: 125-500um
Sample No.: TS-1D
Owner: JPL
Origin: USA, Coloradi, Buffalo
Description: Milky quartz.
Measurement: Hemispherical reflectance
X Units: Wavelength (micrometers)
Y Units: Reflectance (percent)
wavelength	value
15.385	3.8902
15.116	3.7256
14.856	4.0853
14.605	4.2577
14.362	4.5249
14.128	3.3538
13.9	4.3047
13.68	4.6825
13.467	5.1312
13.26	6.0658
13.06	7.5614
12.866	12.9367
12.677	10.2128
12.494	12.4691
12.316	1.3671
12.143	1.589
11.974	2.7376
11.811	3.2994
11.651	3.9462
11.496	4.365
11.345	4.4813
11.198	5.0188
11.055	5.3993
10.915	5.8194
10.779	6.1975
10.647	6.5901
10.517	6.9829
10.39	7.5185
10.267	8.2346
10.146	9.0311
10.029	9.8634
9.914	11.1704
9.801	12.7929
9.691	15.012
9.584	18.2109
9.479	24.6473
9.376	40.895
9.275	56.0286
9.177	59.3111
9.08	60.6848
8.986	61.3777
8.893	61.0048
8.803	58.2238
8.714	53.4554
8.627	33.9188
8.542	54.2918
8.458	55.8244
8.376	53.7644
8.296	52.0664
8.217	49.3546
8.139	39.5187
8.063	24.9405
7.989	15.5138
7.916	8.3903
7.844	4.4646
7.773	2.6836
7.704	1.3016
7.636	0.6135
7.569	0.2843
7.503	0.1225
7.439	0.0677
7.375	0.0495
7.313	0.0459
7.252	0.1013
7.191	0.2139
7.132	0.1114
7.073	0.2453
7.016	0.3163
6.96	0.3212
6.904	0.6793
6.849	0.5269
6.795	0.581
6.742	0.5877
6.69	0.5037
6.639	0.6584
6.588	0.6415
6.538	0.701
6.489	0.7646
6.441	1.2315
6.393	1.1005
6.346	0.9183
6.3	0.9707
6.254	0.8579
6.209	0.9412
6.165	0.884
6.121	1.1374
6.078	1.2083
6.036	1.3441
5.994	1.1811
5.953	1.1284
5.912	1.1962
5.872	1.4807
5.832	1.7441
5.793	2.1185
5.755	2.5537
5.716	2.7638
5.679	2.3413
5.642	1.6852
5.605	1.3915
5.569	1.3951
5.533	1.4553
5.498	1.6388
5.463	1.891
5.429	1.8778
5.395	1.4095
5.362	1.3711
5.329	1.2629
5.296	1.3356
5.264	1.5021
5.232	1.5984
5.2	1.9516
5.169	1.9985
5.139	1.9381
5.108	1.8975
5.078	1.7971
5.049	1.6131
5.019	1.6419
4.99	1.7189
4.962	2.1893
4.933	2.5887
4.905	3.9598
4.878	8.3982
4.85	12.8659
4.823	16.4535
4.796	19.4552
4.77	22.1976
4.744	24.0808
4.718	24.5005
4.692	20.1824
4.667	21.2971
4.642	26.8539
4.617	31.5976
4.592	33.4442
4.568	33.348
4.544	29.7144
4.52	22.9336
4.497	16.6153
4.474	14.8514
4.45	16.0973
4.428	17.9682
4.405	20.5197
4.383	24.4586
4.361	29.0479
4.339	31.952
4.317	32.2296
4.296	30.5745
4.274	30.8663
4.253	33.3418
4.233	33.5417
4.212	34.6049
4.191	35.1219
4.171	37.2458
4.151	38.725
4.131	40.4526
4.112	42.7348
4.092	45.1799
4.073	47.0925
4.054	47.7451
4.035	47.3039
4.016	46.8979
3.998	47.2449
3.979	48.3672
3.961	50.0661
3.943	51.9554
3.925	53.0756
3.907	53.0292
3.89	51.7791
3.872	50.4804
3.855	49.9908
3.838	50.1816
3.821	51.209
3.804	51.8996
3.787	51.5885
3.771	50.4773
3.754	49.3695
3.738	49.1256
3.722	50.1655
3.706	52.232
3.69	55.0024
3.675	57.7629
3.659	59.8837
3.644	60.9551
3.628	61.3375
3.613	61.6816
3.598	62.1291
3.583	62.9908
3.568	64.0942
3.554	65.4402
3.539	66.829
3.525	68.1892
3.51	69.0881
3.496	69.6985
3.482	71.0111
3.468	71.717
3.454	72.0458
3.441	71.7555
3.427	70.8242
3.413	69.8581
3.4	70.2457
3.387	70.3472
3.373	70.0353
3.36	70.7223
3.347	70.8049
3.334	70.49
3.321	70.0843
3.309	69.156
3.296	68.5815
3.284	67.7749
3.271	67.043
3.259	66.489
3.247	65.7944
3.234	65.1087
3.222	64.4434
3.21	63.5879
3.199	62.7011
3.187	61.8031
3.175	61.078
3.163	60.2243
3.152	59.0751
3.14	57.4436
3.129	56.1741
3.118	56.0359
3.107	56.1546
3.095	56.2966
3.084	55.9015
3.073	55.4111
3.063	54.5003
3.052	53.4715
3.041	52.5247
3.03	51.8225
3.02	51.739
3.009	52.0397
2.999	52.3097
2.988	52.4106
2.978	51.8256
2.968	49.9982
2.958	48.883
2.948	50.4723
2.938	51.3093
2.928	51.7259
2.918	51.7654
2.908	52.3533
2.898	53.6434
2.888	54.2384
2.879	54.553
2.869	55.6076
2.86	56.5472
2.85	57.4661
2.841	58.1625
2.832	59.0878
2.822	59.733
2.813	60.6235
2.804	61.8664
2.795	62.3461
2.786	63.022
2.777	63.6086
2.768	65.0763
2.759	65.745
2.751	67.3798
2.742	69.8165
2.733	71.6217
2.725	75.1889
2.716	77.247
2.707	79.3919
2.699	80.1361
2.691	81.9356
2.682	83.2363
2.674	84.1659
2.666	85.7106
2.658	84.6877
2.649	84.9123
2.641	85.0816
2.633	85.4029
2.625	85.4431
2.617	86.0919
2.609	85.7246
2.602	85.6953
2.594	86.5934
2.586	85.9249
2.578	85.7018
2.571	85.8853
2.563	86.1924
2.555	85.5239
2.548	85.7842
2.54	85.6411
2.533	85.9042
2.525	85.741
2.518	85.7486
2.511	85.6529
2.504	85.7279
2.496	85.8279
2.489	85.8087
2.482	85.9374
2.475	85.9613
2.468	86.0478
2.461	86.0665
2.454	86.1714
2.447	86.2467
2.44	86.218
2.433	86.3175
2.426	86.2974
2.419	86.467
2.413	86.3858
2.406	86.3132
2.399	86.4274
2.393	86.5826
2.386	86.6025
2.379	86.6633
2.373	86.7014
2.366	86.775
2.36	86.7164
2.354	86.7833
2.347	86.7873
2.341	86.8541
2.334	86.795
2.328	86.8726
2.322	86.8708
2.316	86.8924
2.309	86.9672
2.303	87.0539
2.297	86.9195
2.291	87.0032
2.285	87.1607
2.279	87.0268
2.273	86.9495
2.267	87.0534
2.261	87.2173
2.255	87.0828
2.249	86.8455
2.244	86.9131
2.238	87.1354
2.232	87.0444
2.226	86.9231
2.22	87.0912
2.215	86.9813
2.209	86.8495
2.204	86.9607
2.198	86.9258
2.192	86.7962
2.187	86.8972
2.181	86.9205
2.176	86.8433
2.17	87.0837
2.165	87.1364
2.159	86.8896
2.154	87.0673
2.149	87.2486
2.143	87.0103
2.138	87.2433
2.133	87.0456
2.128	87.0081
2.122	87.0517
2.117	87.0208
2.112	86.9155
2.107	87.0745
2.102	87.2571
2.097	86.7951
2.091	86.8689
2.086	86.7654
2.081	87.0845
2.076	86.9543
2.071	87.0307
2.066	86.8147
2.062	86.7674
2.057	86.748
2.052	86.8741
2.047	86.9209
2.042	86.7348
2.037	86.825
2.032	86.599
2.028	86.9339
2.023	86.6856
2.018	86.5904
2.014	86.4022
2.009	86.5731
2.004	86.5431
