Name: Gray Slate
Type: Rock
Class: Metamorphic
Subclass: Slate
Particle Size: Solid surface
Sample No.: Ward92.txt
Owner: JPL
Origin: Ward's Collection of American Rocks.  Sample locality - near Bangor, Northampton County, Pennsylvania.  Collected by - JPL.
Description: A dark gray fissile rock containing some carbonate.
Measurement: Hemispherical reflectance
X Units: Wavelength (micrometers)
Y Units: Reflectance (percent)
wavelength	value
2.5	6.3873
2.494	6.27226
2.488	6.18121
2.482	6.42071
2.476	6.25077
2.47	6.35312
2.464	6.29748
2.458	6.25052
2.452	6.31182
2.446	6.35435
2.44	6.29808
2.434	6.32054
2.428	6.34426
2.422	6.2742
2.416	6.28431
2.41	6.31156
2.404	6.27291
2.398	6.34876
2.392	6.33895
2.386	6.27696
2.38	6.38027
2.374	6.41476
2.368	6.39969
2.362	6.39796
2.356	6.38206
2.35	6.43104
2.344	6.34614
2.338	6.36988
2.332	6.41812
2.326	6.43663
2.32	6.35312
2.314	6.37617
2.308	6.41173
2.302	6.4307
2.296	6.37164
2.29	6.39233
2.284	6.51411
2.278	6.42211
2.272	6.36477
2.266	6.38156
2.26	6.35237
2.254	6.44066
2.248	6.48325
2.242	6.45305
2.236	6.46392
2.23	6.3803
2.224	6.431
2.218	6.46628
2.212	6.53461
2.206	6.48879
2.2	6.549
2.194	6.57213
2.188	6.60656
2.182	6.5847
2.176	6.64812
2.17	6.66094
2.164	6.70725
2.158	6.6668
2.152	6.72134
2.146	6.71448
2.14	6.70158
2.134	6.69251
2.128	6.65816
2.122	6.71677
2.116	6.68697
2.11	6.63085
2.104	6.71672
2.098	6.66057
2.092	6.61187
2.086	6.68843
2.08	6.6878
2.074	6.72254
2.068	6.7406
2.062	6.68162
2.056	6.69631
2.05	6.7696
2.044	6.79739
2.038	6.81562
2.032	6.77048
2.026	6.76899
2.02	6.78526
2.014	6.82521
2.008	6.76098
2.002	6.8393
1.996	6.91727
1.99	6.90541
1.984	6.87927
1.978	6.92196
1.972	6.80571
1.966	6.85725
1.96	6.86338
1.954	6.88382
1.948	6.94827
1.942	6.91966
1.936	6.9515
1.93	6.94602
1.924	6.87173
1.918	6.95106
1.912	6.91244
1.906	6.9521
1.9	7.00338
1.894	7.01511
1.888	6.95223
1.882	6.96743
1.876	7.01745
1.87	7.01157
1.864	6.98106
1.858	6.99106
1.852	6.97983
1.846	7.01851
1.84	7.0196
1.834	7.07522
1.828	6.98491
1.822	7.08637
1.816	7.02569
1.81	7.0098
1.804	7.0175
1.798	7.01141
1.792	7.06378
1.786	7.101
1.78	7.07016
1.774	7.02164
1.768	7.09813
1.762	7.08883
1.756	7.12655
1.75	7.08219
1.744	7.04352
1.738	7.12575
1.732	7.062
1.726	7.11855
1.72	7.13203
1.714	7.12144
1.708	7.08091
1.702	7.09451
1.696	7.20378
1.69	7.18104
1.684	7.11735
1.678	7.18833
1.672	7.17065
1.666	7.17597
1.66	7.10723
1.654	7.16015
1.648	7.24664
1.642	7.32027
1.636	7.14809
1.63	7.18761
1.624	7.24214
1.618	7.25213
1.612	7.26955
1.606	7.21569
1.6	7.2884
1.594	7.2522
1.588	7.14138
1.582	7.29206
1.576	7.33948
1.57	7.28347
1.564	7.30912
1.558	7.38988
1.552	7.33664
1.546	7.314
1.54	7.39335
1.534	7.37635
1.528	7.36724
1.522	7.40304
1.516	7.37639
1.51	7.3765
1.504	7.35343
1.498	7.4065
1.492	7.43347
1.486	7.41558
1.48	7.41768
1.474	7.50843
1.468	7.48155
1.462	7.51065
1.456	7.53491
1.45	7.4684
1.444	7.50416
1.438	7.54855
1.432	7.50867
1.426	7.56335
1.42	7.50479
1.414	7.47873
1.408	7.57088
1.402	7.58624
1.396	7.65414
1.39	7.60069
1.384	7.60811
1.378	7.63178
1.372	7.64563
1.366	7.70918
1.36	7.67648
1.354	7.68334
1.348	7.6758
1.342	7.66653
1.336	7.58419
1.33	7.70007
1.324	7.72177
1.318	7.72397
1.312	7.67376
1.306	7.73385
1.3	7.74739
1.294	7.6223
1.288	7.7724
1.282	7.72662
1.276	7.79644
1.27	7.73731
1.264	7.73047
1.258	7.7713
1.252	7.73963
1.246	7.76337
1.24	7.75893
1.234	7.78366
1.228	7.73856
1.222	7.86486
1.216	7.84539
1.21	7.78998
1.204	7.77274
1.198	7.76694
1.192	7.83656
1.186	7.83126
1.18	7.74434
1.174	7.77522
1.168	7.84578
1.162	7.89158
1.156	7.86014
1.15	7.85062
1.144	7.86526
1.138	7.84114
1.132	7.82455
1.126	7.86328
1.12	7.80962
1.114	7.79764
1.108	7.87445
1.102	7.87299
1.096	7.91446
1.09	7.91436
1.084	7.97241
1.078	7.76735
1.072	7.95978
1.066	7.84895
1.06	7.96403
1.054	7.99771
1.048	7.94689
1.042	7.97301
1.036	7.97692
1.03	8.02297
1.024	8.00445
1.018	8.09282
1.012	8.00222
1.006	8.09568
1	8.03494
0.994	8.05076
0.988	8.10925
0.982	8.12534
0.976	8.14025
0.97	8.13001
0.964	8.13373
0.958	8.18049
0.952	8.19174
0.946	8.12093
0.94	8.12699
0.934	8.20818
0.928	8.19955
0.922	8.21971
0.916	8.27882
0.91	8.18671
0.904	8.1812
0.898	8.30028
0.892	8.26712
0.886	8.29543
0.88	8.33835
0.874	8.29067
0.868	8.29742
0.862	8.3223
0.856	8.73232
0.85	8.74285
0.844	8.76949
0.838	8.786
0.832	8.79861
0.826	8.82323
0.82	8.8323
0.814	8.87226
0.808	8.87288
0.802	8.88795
0.796	8.88395
0.79	8.90808
0.784	8.9132
0.778	8.93556
0.772	8.94685
0.766	8.95555
0.76	8.96563
0.754	8.97522
0.748	8.98813
0.742	8.99921
0.736	9.00716
0.73	9.02542
0.724	9.04078
0.718	9.06011
0.712	9.06555
0.706	9.08211
0.7	9.08854
0.694	9.09139
0.688	9.10274
0.682	9.12101
0.676	9.13954
0.67	9.15495
0.664	9.17609
0.658	9.19044
0.652	9.20809
0.646	9.22147
0.64	9.23934
0.634	9.25493
0.628	9.27391
0.622	9.29632
0.616	9.31589
0.61	9.33486
0.604	9.35743
0.598	9.38004
0.592	9.40594
0.586	9.427
0.58	9.44508
0.574	9.46964
0.568	9.48902
0.562	9.50642
0.556	9.52936
0.55	9.54924
0.544	9.5709
0.538	9.59255
0.532	9.61131
0.526	9.63392
0.52	9.65292
0.514	9.66781
0.508	9.67959
0.502	9.6905
0.496	9.71358
0.49	9.73248
0.484	9.76505
0.478	9.79401
0.472	9.81637
0.466	9.83944
0.46	9.84328
0.454	9.8607
0.448	9.87411
0.442	9.89383
0.436	9.91028
0.43	9.93268
0.424	9.95269
0.418	9.96579
0.412	9.98303
0.406	9.99786
0.4	9.98987
