Name: Rutile TiO_2
Type: Mineral
Class: Oxides
Particle Size: 0-45um
Sample No.: O-2A
Owner: JPL
Origin: Unknown.
Measurement: Hemispherical reflectance
X Units: Wavelength (micrometers)
Y Units: Reflectance (percent)
wavelength	value
2.5	46.9548
2.494	47.0454
2.488	46.879
2.482	46.8783
2.476	46.9169
2.47	46.8185
2.464	46.9349
2.458	46.9692
2.452	46.9039
2.446	46.8984
2.44	46.9753
2.434	47.085
2.428	47.0311
2.422	46.9811
2.416	47.0449
2.41	46.9823
2.404	47.0379
2.398	46.8896
2.392	46.9098
2.386	47.0177
2.38	46.9876
2.374	47.0197
2.368	47.0421
2.362	47.0728
2.356	47.1083
2.35	47.0226
2.344	47.1174
2.338	47.0078
2.332	46.9165
2.326	46.7165
2.32	46.595
2.314	46.4592
2.308	46.4466
2.302	46.4373
2.296	46.4572
2.29	46.4803
2.284	46.5156
2.278	46.6489
2.272	46.6243
2.266	46.7023
2.26	46.6938
2.254	46.643
2.248	46.6331
2.242	46.609
2.236	46.6138
2.23	46.562
2.224	46.5377
2.218	46.767
2.212	46.6055
2.206	46.728
2.2	46.7673
2.194	46.7628
2.188	46.8253
2.182	46.6929
2.176	46.813
2.17	46.869
2.164	46.9179
2.158	46.9686
2.152	46.9868
2.146	46.9648
2.14	46.9246
2.134	46.828
2.128	46.771
2.122	46.5141
2.116	46.4091
2.11	46.1965
2.104	46.1055
2.098	45.9732
2.092	45.9763
2.086	45.9232
2.08	45.947
2.074	45.9697
2.068	45.9585
2.062	45.9568
2.056	45.9913
2.05	45.9777
2.044	45.9625
2.038	45.9229
2.032	45.9216
2.026	45.8591
2.02	45.8476
2.014	45.8498
2.008	45.8245
2.002	45.7196
1.996	45.62
1.99	45.5798
1.984	45.4232
1.978	45.4145
1.972	45.3696
1.966	45.3026
1.96	45.2321
1.954	45.2063
1.948	45.1777
1.942	45.1026
1.936	45.1156
1.93	45.1707
1.924	45.0835
1.918	45.0437
1.912	45.1197
1.906	45.0923
1.9	45.113
1.894	45.1567
1.888	45.2044
1.882	45.1137
1.876	44.9987
1.87	45.0828
1.864	45.0921
1.858	44.9996
1.852	44.9268
1.846	44.9047
1.84	44.8719
1.834	44.8301
1.828	44.8032
1.822	44.7083
1.816	44.6765
1.81	44.7332
1.804	44.6621
1.798	44.5821
1.792	44.535
1.786	44.5251
1.78	44.4542
1.774	44.4422
1.768	44.3698
1.762	44.2966
1.756	44.3027
1.75	44.2249
1.744	44.207
1.738	44.1946
1.732	44.1276
1.726	44.1409
1.72	44.063
1.714	43.9966
1.708	43.9735
1.702	43.8976
1.696	43.8943
1.69	43.8236
1.684	43.8527
1.678	43.7808
1.672	43.7537
1.666	43.7278
1.66	43.6828
1.654	43.6521
1.648	43.5377
1.642	43.5968
1.636	43.5579
1.63	43.5167
1.624	43.4335
1.618	43.5091
1.612	43.3525
1.606	43.4511
1.6	43.416
1.594	43.358
1.588	43.3651
1.582	43.3414
1.576	43.3321
1.57	43.3131
1.564	43.2525
1.558	43.303
1.552	43.2275
1.546	43.2098
1.54	43.1872
1.534	43.1927
1.528	43.1943
1.522	43.0861
1.516	43.1426
1.51	43.0984
1.504	43.0917
1.498	43.1043
1.492	43.0319
1.486	43.0564
1.48	43.0414
1.474	43.0478
1.468	43.0067
1.462	43.014
1.456	42.9816
1.45	42.96
1.444	42.9859
1.438	42.9598
1.432	42.9754
1.426	42.9234
1.42	42.9295
1.414	42.9249
1.408	42.8921
1.402	42.8425
1.396	42.8659
1.39	42.9417
1.384	42.9305
1.378	42.9617
1.372	42.9088
1.366	42.8284
1.36	42.9273
1.354	42.9232
1.348	42.8321
1.342	42.7906
1.336	42.7631
1.33	42.7962
1.324	42.8252
1.318	42.6534
1.312	42.7479
1.306	42.7107
1.3	42.8053
1.294	42.7472
1.288	42.7333
1.282	42.6848
1.276	42.7687
1.27	42.6838
1.264	42.7538
1.258	42.7398
1.252	42.7245
1.246	42.7951
1.24	42.7641
1.234	42.7355
1.228	42.7915
1.222	42.8307
1.216	42.8841
1.21	42.8516
1.204	42.8515
1.198	42.9161
1.192	42.9221
1.186	42.9811
1.18	43.0509
1.174	43.0153
1.168	43.1
1.162	43.1188
1.156	43.1561
1.15	43.2012
1.144	43.2127
1.138	43.2241
1.132	43.3555
1.126	43.3944
1.12	43.3821
1.114	43.4429
1.108	43.4654
1.102	43.547
1.096	43.5035
1.09	43.5619
1.084	43.6156
1.078	43.6231
1.072	43.5914
1.066	43.6342
1.06	43.6647
1.054	43.7462
1.048	43.6703
1.042	43.7096
1.036	43.7533
1.03	43.7744
1.024	43.7394
1.018	43.7348
1.012	43.7465
1.006	43.6853
1	43.6875
0.994	43.7475
0.988	43.6606
0.982	43.7044
0.976	43.6065
0.97	43.5713
0.964	43.5736
0.958	43.4801
0.952	43.4676
0.946	43.4185
0.94	43.2861
0.934	43.3205
0.928	43.2102
0.922	43.1276
0.916	43.0139
0.91	42.9475
0.904	42.7842
0.898	42.6614
0.892	42.5609
0.886	42.3481
0.88	42.2136
0.874	42.1041
0.868	41.8314
0.862	41.6651
0.856	41.4054
0.85	41.2146
0.844	41.0223
0.838	40.8365
0.832	40.6317
0.826	40.394
0.82	40.19
0.814	39.9599
0.808	39.7116
0.802	39.4694
0.796	39.1608
0.79	38.8825
0.784	38.6048
0.778	38.2999
0.772	38.0139
0.766	37.7074
0.76	37.4173
0.754	37.1095
0.748	36.8252
0.742	36.5515
0.736	36.2681
0.73	35.9806
0.724	35.6827
0.718	35.4015
0.712	35.1147
0.706	34.8171
0.7	34.518
0.694	34.2145
0.688	33.8967
0.682	33.5985
0.676	33.2885
0.67	32.9563
0.664	32.6029
0.658	32.2387
0.652	31.8737
0.646	31.4777
0.64	31.0781
0.634	30.6701
0.628	30.2462
0.622	29.8165
0.616	29.3809
0.61	28.9278
0.604	28.4725
0.598	28.019
0.592	27.5546
0.586	27.072
0.58	26.5573
0.574	26.0359
0.568	25.4923
0.562	24.9352
0.556	24.3713
0.55	23.7903
0.544	23.2122
0.538	22.6335
0.532	22.0395
0.526	21.4546
0.52	20.8697
0.514	20.2829
0.508	19.7028
0.502	19.1253
0.496	18.5642
0.49	18.0305
0.484	17.5472
0.478	17.054
0.472	16.573
0.466	16.1075
0.46	15.6609
0.454	15.2132
0.448	14.7669
0.442	14.3148
0.436	13.8585
0.43	13.3953
0.424	12.926
0.418	12.4593
0.412	11.9757
0.406	11.4151
0.4	10.6728
