Name: Quartz SiO_2
Type: Mineral
Class: Silicates
Subclass: Tectosilicates
Particle Size: 125-500um
Sample No.: TS-1A
Owner: JPL
Origin: USA, Arkansas, Montgomery County, Mount Ida
Description: Rock crystal.
Measurement: Hemispherical reflectance
X Units: Wavelength (micrometers)
Y Units: Reflectance (percent)
wavelength	value
15.385	3.9461
15.116	4.2585
14.856	4.234
14.605	4.6501
14.362	4.7261
14.128	4.0092
13.9	4.5731
13.68	5.0509
13.467	5.7192
13.26	6.1877
13.06	7.8315
12.866	13.687
12.677	10.5742
12.494	13.258
12.316	1.5376
12.143	1.8498
11.974	3.0089
11.811	3.6633
11.651	4.1856
11.496	4.6961
11.345	4.9782
11.198	5.4061
11.055	5.821
10.915	6.3049
10.779	6.6102
10.647	6.9779
10.517	7.5221
10.39	8.0118
10.267	8.7827
10.146	9.5588
10.029	10.454
9.914	11.6202
9.801	13.4041
9.691	15.7817
9.584	19.1377
9.479	25.7211
9.376	41.9816
9.275	57.059
9.177	60.215
9.08	61.7754
8.986	62.6817
8.893	62.5136
8.803	59.9296
8.714	55.2116
8.627	35.2368
8.542	56.1453
8.458	57.5118
8.376	55.083
8.296	52.9276
8.217	50.2314
8.139	39.8432
8.063	24.8565
7.989	15.2783
7.916	8.328
7.844	4.309
7.773	2.6102
7.704	1.343
7.636	0.6589
7.569	0.2314
7.503	0.1646
7.439	0.0636
7.375	0.0256
7.313	0.056
7.252	0.0466
7.191	0.1348
7.132	0.1607
7.073	0.2393
7.016	0.3377
6.96	0.4788
6.904	0.4126
6.849	0.5564
6.795	0.6453
6.742	0.5803
6.69	0.6289
6.639	0.7257
6.588	0.6931
6.538	0.73
6.489	1.0693
6.441	1.2352
6.393	1.1431
6.346	1.0058
6.3	1.0384
6.254	0.992
6.209	0.8688
6.165	0.9824
6.121	1.0821
6.078	1.3897
6.036	1.4639
5.994	1.2808
5.953	1.2236
5.912	1.2291
5.872	1.4875
5.832	1.912
5.793	2.1643
5.755	2.5651
5.716	2.8451
5.679	2.5157
5.642	1.7148
5.605	1.6335
5.569	1.5911
5.533	1.6158
5.498	1.7857
5.463	2.1071
5.429	1.8608
5.395	1.5438
5.362	1.3756
5.329	1.5157
5.296	1.4623
5.264	1.4864
5.232	1.6758
5.2	2.0987
5.169	1.9568
5.139	2.1305
5.108	2.0267
5.078	1.8267
5.049	1.8298
5.019	1.7771
4.99	1.852
4.962	2.2645
4.933	2.7124
4.905	4.1979
4.878	8.4333
4.85	12.8422
4.823	16.4615
4.796	19.3437
4.77	22.0646
4.744	24.1205
4.718	24.4646
4.692	20.1831
4.667	21.0689
4.642	26.8668
4.617	31.536
4.592	33.5322
4.568	33.3675
4.544	29.6018
4.52	22.9189
4.497	16.5933
4.474	14.9284
4.45	16.0885
4.428	17.9998
4.405	20.636
4.383	24.6258
4.361	29.3486
4.339	32.7017
4.317	33.4942
4.296	32.6852
4.274	33.7982
4.253	35.7477
4.233	35.155
4.212	35.3633
4.191	35.4527
4.171	37.2981
4.151	38.8585
4.131	40.6196
4.112	42.9379
4.092	45.2484
4.073	47.1995
4.054	47.8344
4.035	47.4398
4.016	46.9787
3.998	47.3137
3.979	48.4733
3.961	50.2534
3.943	52.019
3.925	53.2557
3.907	53.1207
3.89	51.9663
3.872	50.5706
3.855	50.0309
3.838	50.3361
3.821	51.3006
3.804	52.0427
3.787	51.7026
3.771	50.621
3.754	49.4663
3.738	49.3311
3.722	50.3613
3.706	52.4806
3.69	55.166
3.675	58.153
3.659	60.2542
3.644	61.5405
3.628	61.8304
3.613	62.1522
3.598	62.8614
3.583	63.7113
3.568	64.9492
3.554	66.3529
3.539	67.8522
3.525	69.3462
3.51	70.3156
3.496	71.0792
3.482	72.6569
3.468	73.6202
3.454	74.0378
3.441	73.9936
3.427	73.0486
3.413	72.2625
3.4	73.1146
3.387	73.4203
3.373	73.4755
3.36	74.6317
3.347	75.0986
3.334	75.18
3.321	74.989
3.309	74.4651
3.296	74.0532
3.284	73.6496
3.271	73.454
3.259	73.365
3.247	73.1256
3.234	73.003
3.222	72.737
3.21	72.3191
3.199	71.9299
3.187	71.3836
3.175	71.0269
3.163	70.4569
3.152	69.4515
3.14	67.362
3.129	66.1814
3.118	66.3217
3.107	67.1058
3.095	67.6297
3.084	67.2481
3.073	66.6573
3.063	65.5521
3.052	63.7952
3.041	61.5176
3.03	59.8746
3.02	59.1342
3.009	59.7608
2.999	61.338
2.988	61.7633
2.978	59.5293
2.968	52.6376
2.958	49.1282
2.948	54.5443
2.938	57.4699
2.928	58.584
2.918	58.1571
2.908	59.0194
2.898	62.3555
2.888	64.7671
2.879	65.0241
2.869	63.0392
2.86	67.2294
2.85	67.7371
2.841	69.1089
2.832	70.8622
2.822	71.9809
2.813	72.9216
2.804	74.0487
2.795	74.4048
2.786	75.0582
2.777	75.5288
2.768	76.8291
2.759	77.0857
2.751	78.553
2.742	79.7036
2.733	80.4219
2.725	82.0147
2.716	82.567
2.707	82.9355
2.699	83.65
2.691	84.6859
2.682	85.0549
2.674	85.5173
2.666	86.2151
2.658	85.6128
2.649	85.7233
2.641	85.8127
2.633	85.9945
2.625	85.8351
2.617	86.2826
2.609	85.8864
2.602	85.9868
2.594	86.2519
2.586	85.9978
2.578	85.6601
2.571	85.8409
2.563	85.9781
2.555	85.7465
2.548	85.9828
2.54	86.0077
2.533	86.1644
2.525	86.2372
2.518	86.3046
2.511	86.1091
2.504	86.1212
2.496	86.3464
2.489	86.2328
2.482	86.3648
2.475	86.3061
2.468	86.4641
2.461	86.4444
2.454	86.589
2.447	86.5581
2.44	86.6631
2.433	86.6687
2.426	86.608
2.419	86.7937
2.413	86.6565
2.406	86.7976
2.399	86.6076
2.393	86.7789
2.386	86.6775
2.379	86.8299
2.373	86.8692
2.366	86.9959
2.36	86.8469
2.354	86.9413
2.347	86.9722
2.341	86.9825
2.334	87.0154
2.328	87.0021
2.322	86.8861
2.316	86.977
2.309	86.9063
2.303	87.0155
2.297	86.7904
2.291	87.0521
2.285	87.0502
2.279	87.0677
2.273	86.936
2.267	86.9725
2.261	87.1863
2.255	87.0396
2.249	87.0005
2.244	86.9105
2.238	87.0158
2.232	86.8943
2.226	86.9168
2.22	86.9477
2.215	86.7977
2.209	86.7846
2.204	86.8066
2.198	86.8816
2.192	86.6313
2.187	86.9511
2.181	86.8911
2.176	86.9067
2.17	86.9863
2.165	87.0928
2.159	86.7972
2.154	86.9777
2.149	87.1532
2.143	87.1148
2.138	87.0612
2.133	86.9891
2.128	87.0889
2.122	87.1899
2.117	87.0383
2.112	86.9161
2.107	87.0899
2.102	87.0358
2.097	86.836
2.091	87.1487
2.086	86.6944
2.081	87.0155
2.076	87.0897
2.071	87.0935
2.066	86.9241
2.062	86.8576
2.057	86.821
2.052	86.8262
2.047	86.7811
2.042	86.8086
2.037	86.8204
2.032	86.9338
2.028	87.1885
2.023	87.1448
2.018	86.6894
2.014	86.746
2.009	86.9095
2.004	86.8396
