Name: Vesuvianite Ca_10(Mg,Fe^2+)_2Al_4(Si_2O_7)_2(SiO_4)_5(OH,F)_4
Type: Mineral
Class: Silicates
Subclass: Sorosilicate
Particle Size: 45-125um
Sample No.: SS-3A
Owner: JPL
Wavelength Range: VNIR-SWIR
Origin: USA, California, Riverside County, Crestmore Quarry
Measurement: Hemispherical reflectance
X Units: Wavelength (micrometers)
Y Units: Reflectance (percent)
wavelength	value
0.4	32.69
0.403	33.94
0.406	35.02
0.409	35.81
0.412	36.48
0.415	37.26
0.418	38.18
0.421	39.12
0.424	40.28
0.427	41.21
0.43	41.92
0.433	42.74
0.436	43.62
0.439	44.43
0.442	45.56
0.445	46.55
0.448	47.85
0.451	49.07
0.454	50.23
0.457	51
0.46	50.88
0.463	53.02
0.466	55.28
0.469	56.96
0.472	58.22
0.475	59.48
0.478	60.23
0.481	60.98
0.484	61.55
0.487	62.14
0.49	62.55
0.493	63.26
0.496	63.75
0.499	64.09
0.502	64.36
0.505	64.59
0.508	64.69
0.511	64.85
0.514	64.92
0.517	64.88
0.52	64.74
0.523	64.74
0.526	64.64
0.529	64.73
0.532	64.97
0.535	65.16
0.538	65.53
0.541	65.69
0.544	65.89
0.547	66.19
0.55	66.44
0.553	66.71
0.556	66.78
0.559	66.87
0.562	67.53
0.565	67.55
0.568	67.57
0.571	67.64
0.574	67.83
0.577	67.79
0.58	67.93
0.583	67.85
0.586	67.96
0.589	68.19
0.592	68.34
0.595	68.33
0.598	68.39
0.601	68.52
0.604	68.51
0.607	68.63
0.61	68.72
0.613	68.69
0.616	68.67
0.619	68.56
0.622	68.76
0.625	68.85
0.628	69.03
0.631	69.06
0.634	69.16
0.637	69.33
0.64	69.6
0.643	69.81
0.646	69.86
0.649	70
0.652	70.04
0.655	70.39
0.658	70.5
0.661	70.71
0.664	70.8
0.667	70.87
0.67	71.05
0.673	71.39
0.676	71.47
0.679	71.55
0.682	71.77
0.685	71.87
0.688	71.96
0.691	72.24
0.694	72.49
0.697	72.46
0.7	72.4
0.703	72.67
0.706	72.89
0.709	72.91
0.712	73.03
0.715	73.13
0.718	73.17
0.721	73.17
0.724	73.35
0.727	73.26
0.73	73.36
0.733	73.33
0.736	73.42
0.739	73.25
0.742	73.43
0.745	73.33
0.748	73.53
0.751	73.49
0.754	73.56
0.757	73.57
0.76	73.57
0.763	73.5
0.766	73.64
0.769	73.66
0.772	73.65
0.775	73.64
0.778	73.78
0.781	73.63
0.784	73.84
0.787	73.78
0.79	73.83
0.793	73.85
0.796	73.9
0.799	73.9
0.808	74.17
0.82	74.02
0.832	73.95
0.844	73.74
0.856	73.29
0.868	72.94
0.88	72.27
0.892	71.31
0.904	70.12
0.916	68.88
0.928	68
0.94	68.71
0.952	70.83
0.964	73.03
0.976	74.35
0.988	75.31
1	75.64
1.012	76.05
1.024	76.37
1.036	76.6
1.048	76.66
1.06	77
1.072	77.09
1.084	77.29
1.096	77.66
1.108	77.86
1.12	78.11
1.132	78.42
1.144	78.69
1.156	78.93
1.168	79.28
1.18	79.57
1.192	79.82
1.204	80.15
1.216	80.41
1.228	80.65
1.24	80.86
1.252	80.77
1.264	81.03
1.276	81.18
1.288	81.28
1.3	81.38
1.312	81.32
1.324	81.22
1.336	81.22
1.348	81.05
1.36	80.65
1.372	79.6
1.384	74.42
1.396	70.36
1.408	71.67
1.42	74.52
1.432	72.57
1.444	74.96
1.456	75.9
1.468	76.58
1.48	77.31
1.492	77.98
1.504	78.39
1.516	78.81
1.528	78.86
1.54	78.99
1.552	79.03
1.564	78.97
1.576	78.93
1.588	78.79
1.6	78.68
1.612	78.49
1.624	78.22
1.636	77.93
1.648	77.65
1.66	77.39
1.672	77.17
1.684	76.99
1.696	76.75
1.708	76.68
1.72	76.53
1.732	76.39
1.744	76.26
1.756	76.05
1.768	75.98
1.78	75.83
1.792	75.76
1.804	75.57
1.816	75.19
1.828	74.95
1.84	74.57
1.852	74.36
1.864	73.75
1.876	73.24
1.888	72.5
1.9	71.83
1.912	71.22
1.924	70.96
1.936	70.46
1.948	69.78
1.96	68.86
1.972	67.76
1.984	67.31
1.996	68.14
2.008	68.68
2.02	69.18
2.032	69.28
2.044	69.2
2.056	68.86
2.068	68.58
2.08	68.03
2.092	66.97
2.104	65.36
2.116	63.54
2.128	61.38
2.14	59.6
2.152	58.9
2.164	58.62
2.176	57.95
2.188	56.71
2.2	54.52
2.212	52.83
2.224	51.99
2.236	50.93
2.248	49.47
2.26	47.65
2.272	46.26
2.284	44.69
2.296	42.89
2.308	41.21
2.32	39.93
2.332	38.43
2.344	37.15
2.356	37.07
2.368	37.89
2.38	38.43
2.392	38.22
2.404	37.95
2.416	37.88
2.428	37.81
2.44	37.95
2.452	38.17
2.464	38.19
2.476	38.33
2.488	38.39
2.5	38.44
