Name: Vermiculite (Mg,Fe^2+,Al)_3(Al,Si)_4O_10(OH)_2.4H_2O
Type: Mineral
Class: Silicates
Subclass: Phyllosilicates
Particle Size: 45-125um
Sample No.: PS-18A
Owner: JPL
Wavelength Range: VNIR-SWIR
Origin: USA, Texas, Llano County, Llano
Measurement: Hemispherical reflectance
X Units: Wavelength (micrometers)
Y Units: Reflectance (percent)
wavelength	value
0.4	43.74
0.403	44.71
0.406	44.88
0.409	45.57
0.412	46.03
0.415	46.42
0.418	46.99
0.421	47.17
0.424	47.85
0.427	47.9
0.43	48.65
0.433	48.94
0.436	49.33
0.439	50.02
0.442	50.08
0.445	50.93
0.448	51.1
0.451	51.67
0.454	52.08
0.457	52.08
0.46	52.59
0.463	52.88
0.466	53.4
0.469	53.74
0.472	53.91
0.475	54.49
0.478	54.56
0.481	55.02
0.484	55.36
0.487	55.65
0.49	56.16
0.493	56.28
0.496	56.85
0.499	56.98
0.502	57.6
0.505	58
0.508	58.23
0.511	58.81
0.514	58.91
0.517	59.49
0.52	59.66
0.523	59.95
0.526	60.4
0.529	60.46
0.532	61.03
0.535	60.85
0.538	61.49
0.541	61.77
0.544	61.72
0.547	62.28
0.55	62.34
0.553	62.74
0.556	62.97
0.559	63.08
0.562	63.6
0.565	63.66
0.568	63.77
0.571	64.05
0.574	63.66
0.577	64.05
0.58	64.11
0.583	64.34
0.586	64.51
0.589	64.51
0.592	65.03
0.595	64.74
0.598	65.14
0.601	65.08
0.604	65.14
0.607	65.59
0.61	65.2
0.613	65.65
0.616	65.53
0.619	65.82
0.622	65.82
0.625	65.99
0.628	66.51
0.631	66.28
0.634	66.68
0.637	66.51
0.64	66.74
0.643	67.03
0.646	66.74
0.649	67.19
0.652	67.08
0.655	67.42
0.658	67.42
0.661	67.42
0.664	67.76
0.667	67.59
0.67	67.94
0.673	67.82
0.676	67.99
0.679	68.28
0.682	68.17
0.685	68.45
0.688	68.34
0.691	68.74
0.694	68.63
0.697	68.63
0.7	68.4
0.703	68.74
0.706	68.68
0.709	68.79
0.712	69.25
0.715	69.02
0.718	69.36
0.721	69.13
0.724	69.36
0.727	69.42
0.73	69.36
0.733	69.82
0.736	69.53
0.739	69.82
0.742	69.59
0.745	69.59
0.748	69.76
0.751	69.48
0.754	70.17
0.757	69.88
0.76	69.94
0.763	70.11
0.766	69.76
0.769	70.22
0.772	70.11
0.775	70.34
0.778	70.17
0.781	70.34
0.784	70.4
0.787	70.22
0.79	70.5
0.793	70.28
0.796	70.73
0.799	70.96
0.808	70.96
0.82	71.02
0.832	71.19
0.844	71.19
0.856	71.31
0.868	71.25
0.88	71.08
0.892	71.25
0.904	71.25
0.916	71.19
0.928	71.08
0.94	70.79
0.952	70.9
0.964	71.25
0.976	71.25
0.988	71.36
1	71.42
1.012	71.54
1.024	71.71
1.036	71.88
1.048	71.99
1.06	72.1
1.072	72.16
1.084	72.21
1.096	72.39
1.108	72.44
1.12	72.5
1.132	72.56
1.144	72.62
1.156	72.66
1.168	72.47
1.18	72.69
1.192	72.84
1.204	72.95
1.216	73.06
1.228	73.23
1.24	73.17
1.252	73.17
1.264	72.86
1.276	72.62
1.288	73.06
1.3	73.44
1.312	73.48
1.324	73.4
1.336	73.34
1.348	71.72
1.36	70.81
1.372	65.46
1.384	55.15
1.396	60.85
1.408	66.21
1.42	67.02
1.432	67.55
1.444	68.07
1.456	68.54
1.468	69.05
1.48	69.57
1.492	69.91
1.504	70.53
1.516	70.99
1.528	71.28
1.54	71.44
1.552	71.9
1.564	71.96
1.576	72.07
1.588	72.25
1.6	72.13
1.612	72.11
1.624	72.21
1.636	72.2
1.648	72.06
1.66	71.93
1.672	71.8
1.684	71.61
1.696	71.37
1.708	71.36
1.72	71.25
1.732	70.96
1.744	70.84
1.756	70.79
1.768	70.57
1.78	70.51
1.792	70.39
1.804	70.09
1.816	70.02
1.828	69.78
1.84	69.31
1.852	68.69
1.864	67.31
1.876	64.75
1.888	60.77
1.9	56.8
1.912	54.24
1.924	53.71
1.936	54.05
1.948	54.53
1.96	55.01
1.972	55.48
1.984	56.46
1.996	57.42
2.008	58.56
2.02	59.42
2.032	60.25
2.044	61.1
2.056	61.6
2.068	61.81
2.08	61.45
2.092	61.15
2.104	61.18
2.116	61.44
2.128	61.64
2.14	62.56
2.152	62.98
2.164	63.39
2.176	63.29
2.188	62.8
2.2	62.06
2.212	60.56
2.224	58.31
2.236	55.74
2.248	53.31
2.26	50.96
2.272	48.93
2.284	46.57
2.296	43.85
2.308	41.56
2.32	41.45
2.332	43.45
2.344	46.53
2.356	48.36
2.368	48.07
2.38	46.73
2.392	45.69
2.404	44.53
2.416	43.41
2.428	42.24
2.44	41.07
2.452	39.74
2.464	38.46
2.476	37.02
2.488	35.84
2.5	42.73
