Name: Hypersthene Gabbro (Norite)
Type: Rock
Class: Igneous
Subclass: Mafic
Particle Size: Solid surface
Sample No.: Ward40.txt
Owner: JPL
Origin: Ward's Collection of American Rocks.  Sample locality - Elizabethtown, Essex County, New York.
Description: A brownish-black, granular rock composed of hypersthene,
Measurement: Hemispherical reflectance
X Units: Wavelength (micrometers)
Y Units: Reflectance (percent)
wavelength	value
2.5	6.75506
2.494	6.496
2.488	6.53283
2.482	6.5008
2.476	6.55314
2.47	6.4375
2.464	6.57897
2.458	6.53492
2.452	6.49271
2.446	6.4221
2.44	6.5088
2.434	6.44146
2.428	6.49653
2.422	6.49727
2.416	6.51326
2.41	6.41568
2.404	6.43258
2.398	6.44568
2.392	6.48438
2.386	6.42587
2.38	6.47235
2.374	6.4023
2.368	6.42031
2.362	6.41875
2.356	6.40052
2.35	6.43607
2.344	6.40301
2.338	6.35369
2.332	6.35032
2.326	6.33156
2.32	6.28894
2.314	6.35804
2.308	6.34966
2.302	6.38924
2.296	6.39267
2.29	6.42626
2.284	6.41132
2.278	6.44841
2.272	6.40477
2.266	6.38263
2.26	6.44872
2.254	6.33742
2.248	6.35677
2.242	6.30835
2.236	6.38015
2.23	6.40097
2.224	6.29693
2.218	6.29184
2.212	6.49749
2.206	6.42874
2.2	6.28698
2.194	6.38364
2.188	6.42223
2.182	6.41568
2.176	6.42925
2.17	6.3848
2.164	6.40331
2.158	6.35813
2.152	6.43446
2.146	6.39331
2.14	6.3769
2.134	6.31396
2.128	6.29139
2.122	6.29897
2.116	6.23939
2.11	6.14723
2.104	6.08702
2.098	6.14953
2.092	6.07982
2.086	6.12923
2.08	6.10303
2.074	6.08972
2.068	6.12902
2.062	6.12671
2.056	6.1006
2.05	6.07684
2.044	6.0439
2.038	6.12319
2.032	6.07266
2.026	6.05813
2.02	6.10081
2.014	6.12555
2.008	6.11308
2.002	6.08072
1.996	6.15483
1.99	6.0966
1.984	6.20598
1.978	6.10339
1.972	6.14091
1.966	6.16061
1.96	6.14467
1.954	6.22461
1.948	6.3169
1.942	6.36124
1.936	6.3015
1.93	6.39981
1.924	6.22148
1.918	6.3293
1.912	6.24528
1.906	6.25644
1.9	6.25047
1.894	6.25178
1.888	6.1397
1.882	6.18573
1.876	6.29194
1.87	6.16051
1.864	6.21248
1.858	6.23042
1.852	6.22273
1.846	6.16225
1.84	6.223
1.834	6.20134
1.828	6.18534
1.822	6.21765
1.816	6.18257
1.81	6.20804
1.804	6.14797
1.798	6.15613
1.792	6.22427
1.786	6.31564
1.78	6.30694
1.774	6.29156
1.768	6.29824
1.762	6.29421
1.756	6.23572
1.75	6.35213
1.744	6.33521
1.738	6.35903
1.732	6.37795
1.726	6.41078
1.72	6.4214
1.714	6.40289
1.708	6.46521
1.702	6.41475
1.696	6.44555
1.69	6.46392
1.684	6.48918
1.678	6.50809
1.672	6.43519
1.666	6.51094
1.66	6.56522
1.654	6.50564
1.648	6.53986
1.642	6.6788
1.636	6.5209
1.63	6.59339
1.624	6.6731
1.618	6.58835
1.612	6.6702
1.606	6.79408
1.6	6.84277
1.594	6.81329
1.588	6.8268
1.582	6.82116
1.576	6.89641
1.57	6.988
1.564	6.96055
1.558	7.05384
1.552	6.99478
1.546	7.04988
1.54	7.12827
1.534	7.10309
1.528	7.07932
1.522	7.11127
1.516	7.21785
1.51	7.17953
1.504	7.21682
1.498	7.22865
1.492	7.28782
1.486	7.2648
1.48	7.2732
1.474	7.27613
1.468	7.27703
1.462	7.3123
1.456	7.3203
1.45	7.31704
1.444	7.36536
1.438	7.34316
1.432	7.32069
1.426	7.32603
1.42	7.32855
1.414	7.2847
1.408	7.29948
1.402	7.26901
1.396	7.33029
1.39	7.28149
1.384	7.30551
1.378	7.30661
1.372	7.25129
1.366	7.30496
1.36	7.22271
1.354	7.26429
1.348	7.21498
1.342	7.18775
1.336	7.22246
1.33	7.19628
1.324	7.11812
1.318	7.14415
1.312	7.09714
1.306	7.12594
1.3	7.07999
1.294	7.03981
1.288	7.11644
1.282	7.03112
1.276	7.05863
1.27	6.96218
1.264	6.98723
1.258	6.93144
1.252	6.97255
1.246	6.91011
1.24	6.92276
1.234	6.89838
1.228	6.85869
1.222	6.86446
1.216	6.87
1.21	6.8802
1.204	6.85441
1.198	6.81619
1.192	6.81393
1.186	6.85998
1.18	6.86844
1.174	6.7661
1.168	6.8901
1.162	6.80578
1.156	6.77755
1.15	6.76326
1.144	6.82657
1.138	6.7756
1.132	6.73387
1.126	6.79715
1.12	6.69443
1.114	6.757
1.108	6.74412
1.102	6.77189
1.096	6.69883
1.09	6.74706
1.084	6.72817
1.078	6.73399
1.072	6.75923
1.066	6.70468
1.06	6.64901
1.054	6.72779
1.048	6.6319
1.042	6.78076
1.036	6.79685
1.03	6.70218
1.024	6.71284
1.018	6.75125
1.012	6.72359
1.006	6.7641
1	6.66764
0.994	6.76021
0.988	6.74085
0.982	6.76801
0.976	6.67568
0.97	6.74885
0.964	6.74176
0.958	6.76352
0.952	6.80904
0.946	6.82116
0.94	6.83337
0.934	6.85451
0.928	6.82853
0.922	6.89161
0.916	6.88271
0.91	6.93589
0.904	6.95694
0.898	6.99926
0.892	7.06006
0.886	7.13566
0.88	7.14462
0.874	7.16093
0.868	7.26625
0.862	7.20724
0.856	7.01373
0.85	7.03225
0.844	7.06583
0.838	7.08742
0.832	7.10202
0.826	7.11026
0.82	7.12085
0.814	7.13431
0.808	7.12916
0.802	7.12669
0.796	7.11906
0.79	7.10813
0.784	7.09981
0.778	7.08661
0.772	7.06672
0.766	7.04968
0.76	7.0355
0.754	7.01817
0.748	6.99232
0.742	6.97587
0.736	6.95654
0.73	6.93697
0.724	6.91737
0.718	6.89141
0.712	6.88099
0.706	6.85811
0.7	6.84821
0.694	6.83549
0.688	6.82812
0.682	6.81972
0.676	6.81566
0.67	6.81199
0.664	6.80864
0.658	6.81096
0.652	6.81424
0.646	6.80911
0.64	6.81084
0.634	6.80499
0.628	6.80499
0.622	6.80389
0.616	6.80414
0.61	6.80303
0.604	6.80323
0.598	6.80699
0.592	6.80374
0.586	6.79798
0.58	6.78798
0.574	6.78037
0.568	6.77963
0.562	6.78089
0.556	6.73091
0.55	6.71579
0.544	6.70763
0.538	6.69067
0.532	6.67228
0.526	6.65321
0.52	6.62197
0.514	6.57572
0.508	6.51024
0.502	6.4377
0.496	6.36029
0.49	6.27362
0.484	6.16085
0.478	6.16441
0.472	6.13848
0.466	6.11855
0.46	6.09415
0.454	6.05242
0.448	5.98979
0.442	5.90425
0.436	5.82359
0.43	5.73238
0.424	5.64968
0.418	5.57865
0.412	5.52363
0.406	5.48236
0.4	5.44653
