Name: Dolomitic Limestone
Type: Rock
Class: Sedimentary
Subclass: Limestone
Particle Size: Solid surface
Sample No.: Ward74.txt
Owner: JPL
Origin: Ward's Collection of American Rocks.  Sample locality - Rochester, Monroe County, New York.
Description: A dark gray dolomitic rock with occasional cavities that
Measurement: Hemispherical reflectance
X Units: Wavelength (micrometers)
Y Units: Reflectance (percent)
wavelength	value
2.5	16.9868
2.494	17.6301
2.488	18.1143
2.482	18.6304
2.476	19.1892
2.47	19.6576
2.464	19.9668
2.458	20.1807
2.452	20.6057
2.446	21.2034
2.44	22.1135
2.434	22.9486
2.428	23.6294
2.422	24.241
2.416	24.834
2.41	25.3925
2.404	25.6096
2.398	25.9033
2.392	26.1465
2.386	26.3086
2.38	26.5407
2.374	26.8185
2.368	26.893
2.362	26.9564
2.356	26.7065
2.35	26.1278
2.344	25.1568
2.338	23.8655
2.332	22.7071
2.326	21.777
2.32	21.3372
2.314	21.2852
2.308	21.575
2.302	21.9049
2.296	22.2935
2.29	22.6999
2.284	23.0427
2.278	23.33
2.272	23.565
2.266	23.8551
2.26	24.2248
2.254	24.8792
2.248	25.3759
2.242	25.754
2.236	26.3259
2.23	26.6146
2.224	26.789
2.218	26.9739
2.212	27.2807
2.206	27.3707
2.2	27.5877
2.194	27.573
2.188	27.8118
2.182	27.8316
2.176	27.8944
2.17	27.8613
2.164	27.9344
2.158	27.9594
2.152	27.8979
2.146	27.7473
2.14	27.7438
2.134	27.7327
2.128	27.7363
2.122	27.7297
2.116	27.6487
2.11	27.5674
2.104	27.5683
2.098	27.4581
2.092	27.4938
2.086	27.4718
2.08	27.4582
2.074	27.4315
2.068	27.3997
2.062	27.3983
2.056	27.3878
2.05	27.3348
2.044	27.322
2.038	27.2278
2.032	27.1269
2.026	27.0055
2.02	26.8748
2.014	26.7484
2.008	26.558
2.002	26.4551
1.996	26.2907
1.99	26.0027
1.984	25.7751
1.978	25.6658
1.972	25.5876
1.966	25.5938
1.96	25.6208
1.954	25.5916
1.948	25.53
1.942	25.4902
1.936	25.5431
1.93	25.5638
1.924	25.6225
1.918	25.7525
1.912	26.0765
1.906	26.3146
1.9	26.4368
1.894	26.7579
1.888	26.904
1.882	26.9929
1.876	26.9797
1.87	26.779
1.864	26.7316
1.858	26.7282
1.852	26.7187
1.846	26.7965
1.84	26.7975
1.834	26.8177
1.828	26.8097
1.822	26.7201
1.816	26.7854
1.81	26.7508
1.804	26.757
1.798	26.6866
1.792	26.6765
1.786	26.6223
1.78	26.5988
1.774	26.5199
1.768	26.4946
1.762	26.456
1.756	26.4073
1.75	26.3697
1.744	26.3339
1.738	26.2646
1.732	26.1733
1.726	26.2281
1.72	26.1334
1.714	26.0788
1.708	26.1185
1.702	26.0334
1.696	25.8878
1.69	26.0089
1.684	25.8336
1.678	25.7385
1.672	25.8171
1.666	25.7783
1.66	25.7336
1.654	25.6446
1.648	25.6314
1.642	25.6546
1.636	25.4687
1.63	25.4293
1.624	25.4688
1.618	25.3382
1.612	25.3771
1.606	25.2372
1.6	25.1535
1.594	25.1397
1.588	25.0577
1.582	25.0386
1.576	24.9346
1.57	24.9
1.564	24.8073
1.558	24.7092
1.552	24.7071
1.546	24.6265
1.54	24.565
1.534	24.5275
1.528	24.4426
1.522	24.3512
1.516	24.263
1.51	24.1711
1.504	24.0661
1.498	23.9867
1.492	23.8996
1.486	23.8683
1.48	23.7415
1.474	23.6721
1.468	23.6457
1.462	23.5325
1.456	23.4031
1.45	23.2752
1.444	23.2514
1.438	23.216
1.432	23.1863
1.426	23.0714
1.42	22.9872
1.414	22.8786
1.408	22.8308
1.402	22.7801
1.396	22.8106
1.39	22.7213
1.384	22.6401
1.378	22.5113
1.372	22.4712
1.366	22.3416
1.36	22.1254
1.354	22.1746
1.348	22.0885
1.342	21.8729
1.336	21.8016
1.33	21.677
1.324	21.4878
1.318	21.4618
1.312	21.4053
1.306	21.2339
1.3	21.1873
1.294	21.036
1.288	20.9312
1.282	20.7908
1.276	20.6086
1.27	20.5224
1.264	20.3649
1.258	20.2344
1.252	20.1761
1.246	19.9762
1.24	19.8315
1.234	19.7691
1.228	19.5973
1.222	19.3773
1.216	19.3268
1.21	19.1335
1.204	19.0072
1.198	18.8501
1.192	18.7611
1.186	18.6492
1.18	18.4676
1.174	18.273
1.168	18.153
1.162	18.0766
1.156	17.9419
1.15	17.8158
1.144	17.6148
1.138	17.4877
1.132	17.3695
1.126	17.2922
1.12	17.0818
1.114	17.0093
1.108	16.9073
1.102	16.7479
1.096	16.5995
1.09	16.5628
1.084	16.3739
1.078	16.2653
1.072	16.1794
1.066	16.0595
1.06	16.0812
1.054	15.8618
1.048	15.6939
1.042	15.6723
1.036	15.5643
1.03	15.4848
1.024	15.5097
1.018	15.2371
1.012	15.16
1.006	15.0957
1	14.9862
0.994	14.9508
0.988	14.9127
0.982	14.7846
0.976	14.6464
0.97	14.6532
0.964	14.5171
0.958	14.4264
0.952	14.3563
0.946	14.2836
0.94	14.1594
0.934	14.102
0.928	14.0179
0.922	13.937
0.916	13.8193
0.91	13.7477
0.904	13.7868
0.898	13.5808
0.892	13.5558
0.886	13.5408
0.88	13.3896
0.874	13.3655
0.868	13.1813
0.862	13.0823
0.856	13.0173
0.85	12.9278
0.844	12.8587
0.838	12.7857
0.832	12.7081
0.826	12.6214
0.82	12.5413
0.814	12.4678
0.808	12.3935
0.802	12.301
0.796	12.213
0.79	12.1304
0.784	12.0324
0.778	11.9568
0.772	11.8685
0.766	11.7816
0.76	11.6964
0.754	11.6159
0.748	11.5322
0.742	11.4437
0.736	11.358
0.73	11.2752
0.724	11.1877
0.718	11.0957
0.712	11.0126
0.706	10.9257
0.7	10.8339
0.694	10.7518
0.688	10.6681
0.682	10.5755
0.676	10.4871
0.67	10.3991
0.664	10.3097
0.658	10.2258
0.652	10.1402
0.646	10.0547
0.64	9.96961
0.634	9.88465
0.628	9.80092
0.622	9.71626
0.616	9.63327
0.61	9.55353
0.604	9.47225
0.598	9.39768
0.592	9.32132
0.586	9.24516
0.58	9.1667
0.574	9.0906
0.568	9.00911
0.562	8.93457
0.556	8.86058
0.55	8.78739
0.544	8.71499
0.538	8.64195
0.532	8.58959
0.526	8.52102
0.52	8.45433
0.514	8.38757
0.508	8.32419
0.502	8.26625
0.496	8.20833
0.49	8.14982
0.484	8.09326
0.478	8.03007
0.472	7.97086
0.466	7.91668
0.46	7.86953
0.454	7.8271
0.448	7.78787
0.442	7.75199
0.436	7.7116
0.43	7.67876
0.424	7.65261
0.418	7.62405
0.412	7.61119
0.406	7.59612
0.4	7.59973
