Name: Sodalite Na_8Al_6Si_6O_24Cl_2
Type: Mineral
Class: Silicates
Subclass: Tectosilicates
Particle Size: 125-500um
Sample No.: TS-10A
Owner: JPL
Wavelength Range: VNIR-SWIR
Origin: Canada, Ontario, Hastings County, Bancroft
Measurement: Hemispherical reflectance
X Units: Wavelength (micrometers)
Y Units: Reflectance (percent)
wavelength	value
0.4	38.17
0.403	38.46
0.406	38.83
0.409	39.04
0.412	39.08
0.415	39.14
0.418	39.31
0.421	39.09
0.424	39.19
0.427	39.1
0.43	38.98
0.433	38.96
0.436	38.79
0.439	38.63
0.442	38.49
0.445	38.07
0.448	37.93
0.451	37.79
0.454	37.31
0.457	37
0.46	36.91
0.463	36.28
0.466	35.92
0.469	35.66
0.472	35.16
0.475	34.77
0.478	34.45
0.481	34.07
0.484	33.74
0.487	33.31
0.49	32.84
0.493	32.55
0.496	32.29
0.499	31.82
0.502	31.39
0.505	31.19
0.508	30.71
0.511	30.6
0.514	30.12
0.517	29.73
0.52	29.59
0.523	29.33
0.526	28.84
0.529	28.65
0.532	28.33
0.535	27.9
0.538	27.79
0.541	27.57
0.544	27.32
0.547	27.21
0.55	26.91
0.553	26.73
0.556	26.58
0.559	26.29
0.562	26.25
0.565	26.21
0.568	25.93
0.571	25.72
0.574	25.5
0.577	25.14
0.58	25.09
0.583	25.03
0.586	24.84
0.589	24.75
0.592	24.84
0.595	24.63
0.598	24.65
0.601	24.88
0.604	24.92
0.607	25.16
0.61	25.17
0.613	25.27
0.616	25.46
0.619	25.58
0.622	25.62
0.625	25.81
0.628	25.96
0.631	25.95
0.634	26.15
0.637	26.13
0.64	26.14
0.643	26.28
0.646	26.52
0.649	26.52
0.652	26.72
0.655	27.1
0.658	27.22
0.661	27.61
0.664	27.75
0.667	28.23
0.67	28.67
0.673	29
0.676	29.58
0.679	30.28
0.682	30.73
0.685	31.54
0.688	32.47
0.691	33.19
0.694	34.16
0.697	35.23
0.7	35.92
0.703	37.58
0.706	38.89
0.709	40.25
0.712	41.58
0.715	42.99
0.718	44.18
0.721	45.39
0.724	46.77
0.727	47.91
0.73	48.86
0.733	49.92
0.736	50.85
0.739	51.53
0.742	52.46
0.745	53.02
0.748	53.64
0.751	54.45
0.754	54.85
0.757	55.27
0.76	55.75
0.763	56.2
0.766	56.49
0.769	56.93
0.772	57.16
0.775	57.36
0.778	57.71
0.781	57.79
0.784	58.14
0.787	58.33
0.79	58.38
0.793	58.56
0.796	58.79
0.799	58.74
0.808	59.56
0.82	59.83
0.832	60.03
0.844	60.13
0.856	60.2
0.868	60.2
0.88	60.08
0.892	60
0.904	59.91
0.916	59.86
0.928	59.7
0.94	59.58
0.952	59.4
0.964	59.3
0.976	59.06
0.988	58.87
1	58.69
1.012	58.54
1.024	58.34
1.036	58.28
1.048	58.11
1.06	58
1.072	58.07
1.084	58.11
1.096	58.25
1.108	58.39
1.12	58.55
1.132	58.89
1.144	59.22
1.156	59.46
1.168	59.74
1.18	60.03
1.192	60.4
1.204	60.68
1.216	60.87
1.228	61.13
1.24	61.44
1.252	61.7
1.264	61.85
1.276	62.11
1.288	62.2
1.3	62.25
1.312	62.39
1.324	62.46
1.336	62.41
1.348	62.53
1.36	62.65
1.372	62.69
1.384	62.61
1.396	62.38
1.408	62.03
1.42	62
1.432	62.09
1.444	62.2
1.456	62.69
1.468	62.92
1.48	63.33
1.492	63.69
1.504	63.92
1.516	64.01
1.528	64.26
1.54	64.45
1.552	64.7
1.564	65.04
1.576	65.33
1.588	65.5
1.6	65.7
1.612	65.93
1.624	66.19
1.636	66.39
1.648	66.63
1.66	66.92
1.672	67.09
1.684	67.23
1.696	67.41
1.708	67.65
1.72	67.82
1.732	67.89
1.744	68
1.756	68.06
1.768	68.08
1.78	68.2
1.792	68.37
1.804	68.47
1.816	68.54
1.828	68.57
1.84	68.4
1.852	68.35
1.864	68.25
1.876	67.84
1.888	67.03
1.9	65.51
1.912	64.53
1.924	64.6
1.936	64.98
1.948	65.44
1.96	65.77
1.972	66.19
1.984	66.55
1.996	66.92
2.008	67.25
2.02	67.61
2.032	67.82
2.044	67.97
2.056	68.15
2.068	68.29
2.08	68.4
2.092	68.29
2.104	68.12
2.116	67.94
2.128	67.6
2.14	67.51
2.152	67.5
2.164	67.46
2.176	67.33
2.188	67.12
2.2	66.92
2.212	66.69
2.224	66.41
2.236	66.1
2.248	65.56
2.26	64.95
2.272	64.48
2.284	63.7
2.296	62.96
2.308	62.3
2.32	61.69
2.332	61.31
2.344	61.69
2.356	62.47
2.368	63.39
2.38	63.75
2.392	63.67
2.404	63.48
2.416	63.09
2.428	62.39
2.44	61.55
2.452	60.4
2.464	59.19
2.476	57.99
2.488	57.24
2.5	56.39
