Name: Zincite (Zn,Mn)O
Type: Mineral
Class: Oxides
Particle Size: 0-45um
Sample No.: O-13A
Owner: JPL
Description: Synthetic zincite.
Measurement: Hemispherical reflectance
X Units: Wavelength (micrometers)
Y Units: Reflectance (percent)
wavelength	value
15.3853	0.117828
15.1161	0.157934
14.8563	0.394325
14.6052	0.700877
14.3624	0.47851
14.1276	0.622782
13.9004	1.11783
13.6803	1.24385
13.4671	1.99158
13.2604	3.61835
13.06	3.7969
12.8656	3.62622
12.6769	4.17858
12.4936	5.22532
12.3155	5.75029
12.1425	5.48264
11.9742	4.73237
11.8106	4.45041
11.6513	4.04497
11.4963	3.72834
11.3454	3.85717
11.1983	4.73879
11.0551	5.41341
10.9154	6.03631
10.7793	7.67655
10.6465	9.05747
10.5169	10.9031
10.3904	11.3341
10.267	9.77596
10.1464	8.63274
10.0287	9.95644
9.91364	11.2125
9.80119	12.1529
9.69128	14.0248
9.5838	17.1407
9.47867	23.1537
9.37583	24.4504
9.27519	24.975
9.17669	25.2669
9.08027	27.4687
8.98585	31.6256
8.89337	34.8626
8.80277	37.8235
8.714	40.6815
8.62701	43.9377
8.54174	46.522
8.45813	48.7537
8.37614	50.5836
8.29573	52.0722
8.21685	52.9288
8.13946	53.8212
8.0635	54.5309
7.98896	55.3217
7.91578	55.8416
7.84392	55.593
7.77337	53.5255
7.70406	51.4951
7.63598	46.6125
7.5691	42.6667
7.50338	41.1617
7.43879	40.6379
7.37529	38.0301
7.31288	34.1306
7.25152	29.7416
7.19117	27.9491
7.13182	29.1082
7.07344	28.9
7.01601	30.0367
6.95951	34.4546
6.90391	36.91
6.84918	35.2849
6.79532	31.7446
6.74231	29.271
6.69011	27.5116
6.63871	25.1367
6.5881	24.1514
6.53825	25.2728
6.48915	28.0536
6.44079	25.6306
6.39314	23.8283
6.34618	30.2538
6.29992	35.7652
6.25432	40.0366
6.20938	44.8945
6.16508	49.6819
6.12141	53.2016
6.07835	55.7299
6.0359	57.5059
5.99403	59.6977
5.95274	61.7047
5.91201	63.3455
5.87184	64.8935
5.83221	66.1717
5.79311	66.778
5.75453	66.9226
5.71646	67.0736
5.6789	67.349
5.64182	68.0853
5.60522	68.2168
5.5691	68.6283
5.53344	69.0245
5.49823	69.2526
5.46347	69.5448
5.42914	69.8086
5.39525	69.9055
5.36177	70.1033
5.32871	70.1671
5.29605	70.2464
5.26379	70.3215
5.23192	70.3304
5.20044	70.3113
5.16933	70.2457
5.13859	70.2215
5.10821	70.2061
5.07819	70.0627
5.04852	69.9831
5.0192	69.8573
4.99021	69.7527
4.96156	69.685
4.93324	69.4824
4.90524	69.3517
4.87755	69.2144
4.85017	68.9855
4.8231	68.7753
4.79633	68.4893
4.76986	68.4994
4.74367	68.6483
4.71777	68.9484
4.69216	69.3801
4.66682	69.9181
4.64175	70.291
4.61695	70.7325
4.59241	71.0623
4.56814	71.5325
4.54411	72.1058
4.52034	72.4105
4.49682	72.8957
4.47354	73.1657
4.4505	73.5929
4.4277	73.7972
4.40513	74.2547
4.38278	74.6208
4.36067	74.7765
4.33877	75.1195
4.3171	75.2833
4.29564	75.237
4.27439	75.4693
4.25335	75.5842
4.23252	75.5366
4.21189	75.8517
4.19146	75.9507
4.17123	76.1396
4.15119	76.0985
4.13134	76.101
4.11168	76.1232
4.09221	76.0114
4.07292	76.1417
4.05382	76.1537
4.03489	76.2077
4.01614	76.2747
3.99756	76.2091
3.97915	76.1198
3.96091	75.8863
3.94284	75.7519
3.92493	75.2845
3.90718	75.0947
3.8896	74.8836
3.87217	74.875
3.8549	74.6768
3.83777	74.5484
3.82081	74.3862
3.80399	74.3819
3.78731	74.284
3.77079	74.136
3.7544	73.8857
3.73816	73.6434
3.72206	73.3607
3.7061	72.9276
3.69027	72.5543
3.67458	72.3808
3.65902	72.0565
3.64359	71.5945
3.6283	71.3252
3.61312	70.7946
3.59808	70.3392
3.58316	69.6774
3.56836	69.0201
3.55369	68.4956
3.53914	67.818
3.5247	66.8691
3.51038	65.4436
3.49618	65.367
3.48209	65.2417
3.46812	64.9534
3.45425	64.8688
3.4405	64.4467
3.42686	64.0333
3.41332	63.3237
3.39989	63.5157
3.38657	63.6632
3.37335	63.3253
3.36023	63.7609
3.34721	63.9771
3.3343	63.9273
3.32148	63.7338
3.30876	63.4628
3.29614	63.0607
3.28362	62.6216
3.27119	62.35
3.25885	61.6385
3.24661	61.1106
3.23446	60.6512
3.22239	60.2355
3.21042	59.7323
3.19854	59.0185
3.18674	58.5472
3.17504	57.92
3.16341	57.2208
3.15187	56.6801
3.14042	56.0445
3.12905	55.3084
3.11776	54.688
3.10655	54.0543
3.09542	53.3812
3.08437	52.7471
3.0734	52.1443
3.06251	51.5201
3.0517	50.7454
3.04096	49.7742
3.03029	49.1173
3.0197	48.1214
3.00919	46.9682
2.99875	45.8941
2.98838	45.1714
2.97808	44.2646
2.96785	44.1396
2.95769	44.0417
2.9476	44.5303
2.93758	44.7582
2.92763	44.8124
2.91775	44.8622
2.90793	45.105
2.89817	45.7142
2.88849	46.6678
2.87886	47.5004
2.8693	48.2118
2.85981	48.7568
2.85038	49.2786
2.841	49.8453
2.83169	50.1067
2.82245	50.2454
2.81326	49.7963
2.80413	50.7291
2.79506	52.6592
2.78605	55.036
2.77709	57.4536
2.7682	59.9471
2.75936	64.0112
2.75057	67.6638
2.74185	69.3082
2.73318	67.4994
2.72456	69.8334
2.71599	68.9539
2.70748	73.7285
2.69903	79.4482
2.69062	83.2803
2.68227	85.1856
2.67397	86.2109
2.66572	87.2381
2.65753	87.1767
2.64938	87.5569
2.64128	88.0218
2.63323	88.2979
2.62523	88.7268
2.61728	89.0522
2.60938	89.1831
2.60152	89.5519
2.59371	90.147
2.58595	90.2088
2.57824	90.3853
2.57057	90.6775
2.56294	90.5854
2.55536	90.5858
2.54783	90.5479
2.54034	90.7212
2.53289	90.677
2.52549	90.7353
2.51813	90.8235
2.51082	90.802
2.50354	90.9396
2.49631	90.8505
2.48912	90.7176
2.48197	90.6974
2.47486	90.8645
2.46779	90.7783
2.46077	90.6628
2.45378	90.7737
2.44683	90.7366
2.43992	90.6397
2.43305	90.5517
2.42622	90.3454
2.41943	90.5962
2.41267	90.6761
2.40595	90.6258
2.39928	90.9034
2.39263	90.8802
2.38603	91.1264
2.37946	91.2795
2.37292	91.5216
2.36642	91.6808
2.35996	91.8577
2.35353	92.0135
2.34714	92.2782
2.34078	92.3557
2.33446	92.4587
2.32817	92.5403
2.32191	92.6133
2.31569	92.7278
2.3095	92.7128
2.30335	92.6813
2.29722	92.6566
2.29113	92.7323
2.28507	92.5504
2.27905	92.5547
2.27305	92.4775
2.26709	92.4727
2.26116	92.5171
2.25526	92.4791
2.24939	92.5623
2.24355	92.5526
2.23774	92.8915
2.23196	93.2428
2.22621	93.687
2.22049	93.6689
2.21479	93.7202
2.20913	93.9853
2.2035	94.0745
2.19789	94.1563
2.19232	94.0075
2.18677	94.3651
2.18125	94.4464
2.17576	94.3851
2.17029	94.5239
2.16486	94.5672
2.15945	94.5279
2.15406	94.472
2.14871	94.608
2.14338	94.4638
2.13808	94.7573
2.1328	94.6646
2.12755	94.8582
2.12232	94.6346
2.11712	94.76
2.11195	94.7019
2.1068	94.7231
2.10168	94.7754
2.09658	94.7614
2.0915	94.9414
2.08645	94.9048
2.08143	94.4003
2.07643	94.9876
2.07145	94.6943
2.06649	94.6771
2.06156	94.6444
2.05666	94.9438
2.05177	95.0395
2.04691	94.9338
2.04208	94.8071
2.03726	94.9659
2.03247	95.0065
2.0277	94.8943
2.02295	95.0449
2.01823	94.7838
2.01353	95.0822
2.00885	94.9316
2.00419	94.7976
