Name: Natrolite Na_2Al_2Si_3O_10.2H_2O
Type: Mineral
Class: Silicates
Subclass: Tectosilicates
Particle Size: 45-125um
Sample No.: TS-8A
Owner: JPL
Origin: India, Maharashtra, Poona
Measurement: Hemispherical reflectance
X Units: Wavelength (micrometers)
Y Units: Reflectance (percent)
wavelength	value
15.385	2.6866
15.116	2.46
14.856	1.8936
14.605	1.9003
14.362	1.3228
14.128	0.8653
13.9	0.9793
13.68	0.9996
13.467	1.4842
13.26	1.9575
13.06	2.1241
12.866	2.6217
12.677	3.1193
12.494	3.5804
12.316	3.8583
12.143	4.1442
11.974	4.4239
11.811	4.9449
11.651	4.8629
11.496	4.7256
11.345	5.1166
11.198	5.2941
11.055	5.5018
10.915	5.8393
10.779	6.718
10.647	8.1514
10.517	10.7867
10.39	18.4122
10.267	18.9563
10.146	24.2587
10.029	25.781
9.914	25.0581
9.801	14.554
9.691	1.8251
9.584	10.2169
9.479	16.0533
9.376	14.5493
9.275	10.5018
9.177	17.3834
9.08	16.5814
8.986	17.7954
8.893	13.0036
8.803	6.7006
8.714	3.1373
8.627	1.4842
8.542	0.6193
8.458	0.2306
8.376	0
8.296	0.1054
8.217	0.0376
8.139	0.0788
8.063	0.138
7.989	0.3714
7.916	0.2693
7.844	0.3286
7.773	0.3343
7.704	0.4654
7.636	0.5786
7.569	0.679
7.503	0.8539
7.439	0.9911
7.375	1.0465
7.313	1.2214
7.252	1.2097
7.191	1.4607
7.132	1.4609
7.073	1.6464
7.016	1.8462
6.96	2.0699
6.904	2.1887
6.849	2.1845
6.795	2.4287
6.742	2.4951
6.69	2.6512
6.639	2.9827
6.588	3.0657
6.538	3.1527
6.489	3.2324
6.441	2.9968
6.393	2.9044
6.346	2.4777
6.3	2.172
6.254	1.9801
6.209	1.5832
6.165	1.4275
6.121	1.0913
6.078	1.2731
6.036	1.9416
5.994	2.6042
5.953	3.1766
5.912	3.2748
5.872	3.3216
5.832	3.5117
5.793	3.5685
5.755	4.037
5.716	4.3626
5.679	4.8633
5.642	5.395
5.605	5.7138
5.569	6.2855
5.533	6.3932
5.498	6.4793
5.463	6.8342
5.429	7.768
5.395	8.9145
5.362	10.0932
5.329	11.1176
5.296	12.8825
5.264	14.1741
5.232	14.1604
5.2	13.1816
5.169	13.3786
5.139	12.6203
5.108	11.4579
5.078	10.5222
5.049	9.6045
5.019	10.1098
4.99	11.8954
4.962	12.8407
4.933	12.6869
4.905	11.4341
4.878	10.5066
4.85	9.7905
4.823	8.9633
4.796	7.9079
4.77	6.2091
4.744	4.3584
4.718	2.9736
4.692	2.1715
4.667	2.034
4.642	2.5441
4.617	4.0315
4.592	6.2976
4.568	7.8694
4.544	8.9682
4.52	10.2468
4.497	11.6878
4.474	13.9373
4.45	16.4755
4.428	18.9657
4.405	20.6185
4.383	21.5127
4.361	22.2423
4.339	22.9879
4.317	23.2233
4.296	23.4501
4.274	24.3576
4.253	26.3765
4.233	26.7386
4.212	28.6931
4.191	30.1014
4.171	31.6204
4.151	33.9561
4.131	36.2004
4.112	37.6649
4.092	38.4949
4.073	38.8719
4.054	37.9332
4.035	38.9145
4.016	39.9028
3.998	40.5021
3.979	40.6634
3.961	40.8703
3.943	40.8864
3.925	40.7348
3.907	40.2972
3.89	39.8864
3.872	39.0277
3.855	37.8415
3.838	35.9375
3.821	36.5787
3.804	36.0833
3.787	35.5753
3.771	35.3681
3.754	34.5422
3.738	33.4706
3.722	32.244
3.706	30.9449
3.69	29.8789
3.675	29.0182
3.659	28.7318
3.644	28.5604
3.628	28.7539
3.613	28.4846
3.598	27.8374
3.583	26.7106
3.568	25.3589
3.554	24.0197
3.539	22.8096
3.525	21.6429
3.51	20.5779
3.496	19.3291
3.482	18.0159
3.468	16.8706
3.454	15.6774
3.441	14.6934
3.427	13.6076
3.413	12.3681
3.4	11.4424
3.387	10.2962
3.373	9.0642
3.36	7.891
3.347	6.953
3.334	5.9616
3.321	5.0174
3.309	4.4559
3.296	4.1415
3.284	3.7033
3.271	3.5761
3.259	3.1658
3.247	3.0064
3.234	2.8302
3.222	2.8156
3.21	2.5289
3.199	2.2973
3.187	2.2561
3.175	2.009
3.163	1.9145
3.152	1.692
3.14	1.7616
3.129	1.6954
3.118	1.7203
3.107	1.8337
3.095	1.6416
3.084	1.8461
3.073	1.8593
3.063	1.8328
3.052	1.8727
3.041	1.8815
3.03	1.8163
3.02	1.8667
3.009	1.642
2.999	1.5579
2.988	1.1937
2.978	1.2992
2.968	1.3673
2.958	1.4284
2.948	1.3688
2.938	1.4307
2.928	1.3741
2.918	1.6612
2.908	1.6357
2.898	1.6414
2.888	1.7122
2.879	1.5362
2.869	1.6894
2.86	1.5162
2.85	1.8042
2.841	1.7712
2.832	1.8041
2.822	1.2705
2.813	0.8168
2.804	0.9948
2.795	0.9996
2.786	1.3403
2.777	1.4407
2.768	1.3416
2.759	1.8441
2.751	2.4959
2.742	2.4919
2.733	3.9552
2.725	6.6995
2.716	10.6909
2.707	15.3491
2.699	18.8885
2.691	21.0845
2.682	21.5287
2.674	21.7086
2.666	23.4617
2.658	24.4945
2.649	25.1956
2.641	25.3772
2.633	26.8682
2.625	28.9201
2.617	30.4455
2.609	29.9189
2.602	28.1447
2.594	25.4616
2.586	23.6325
2.578	26.0506
2.571	29.9686
2.563	33.8374
2.555	37.0434
2.548	39.8587
2.54	41.7325
2.533	42.4386
2.525	42.9593
2.518	43.4662
2.511	44.17
2.504	44.6202
2.496	44.0894
2.489	42.1607
2.482	39.2343
2.475	35.4386
2.468	32.2454
2.461	31.5293
2.454	32.3978
2.447	31.6563
2.44	28.7073
2.433	26.5563
2.426	27.0146
2.419	30.3339
2.413	35.193
2.406	39.9755
2.399	43.8903
2.393	45.8381
2.386	47.0138
2.379	47.9791
2.373	49.2137
2.366	50.7933
2.36	52.3731
2.354	53.4812
2.347	54.4629
2.341	55.599
2.334	57.343
2.328	58.416
2.322	59.6371
2.316	60.8451
2.309	61.8474
2.303	62.197
2.297	62.3742
2.291	61.9597
2.285	60.9776
2.279	60.243
2.273	60.1342
2.267	61.0264
2.261	61.4577
2.255	62.1479
2.249	61.9198
2.244	61.6116
2.238	60.669
2.232	59.7868
2.226	58.5098
2.22	56.7203
2.215	54.4434
2.209	51.7549
2.204	49.5366
2.198	48.5046
2.192	49.3005
2.187	50.9492
2.181	52.5723
2.176	53.4557
2.17	53.6402
2.165	53.6888
2.159	54.0745
2.154	54.3803
2.149	54.8193
2.143	55.2628
2.138	55.5407
2.133	55.2918
2.128	54.6534
2.122	53.7711
2.117	53.2369
2.112	51.8608
2.107	49.8925
2.102	47.7126
2.097	45.6246
2.091	44.3725
2.086	43.4843
2.081	43.0288
2.076	43.4338
2.071	43.7658
2.066	44.7883
2.062	44.9118
2.057	44.6464
2.052	44.4213
2.047	43.1463
2.042	41.8461
2.037	39.5158
2.032	36.7621
2.028	34.4607
2.023	31.9297
2.018	30.8221
2.014	29.7368
2.009	29.538
2.004	29.614
