Name: Tourmaline Na(Mg_3,Fe_3^2+)Al_6(BO_3)_3Si_6O_18(OH)_4
Type: Mineral
Class: Silicates
Subclass: Cyclosilicates
Particle Size: 45-125um
Sample No.: CS-1A
Owner: JPL
Origin: USA, New York, Overlook.
Measurement: Hemispherical reflectance
X Units: Wavelength (micrometers)
Y Units: Reflectance (percent)
wavelength	value
2.5	19.105
2.494	19.1059
2.488	19.2323
2.482	19.0772
2.476	19.199
2.47	19.2348
2.464	19.2318
2.458	19.4816
2.452	19.5457
2.446	19.6005
2.44	19.6239
2.434	19.8801
2.428	19.8871
2.422	19.8947
2.416	19.9183
2.41	19.7372
2.404	19.6704
2.398	19.3251
2.392	18.9151
2.386	18.2891
2.38	17.4783
2.374	16.6439
2.368	16.0973
2.362	15.8815
2.356	16.1027
2.35	16.4247
2.344	17.0365
2.338	17.4589
2.332	17.723
2.326	17.9272
2.32	18.0521
2.314	18.1282
2.308	18.1674
2.302	18.1219
2.296	18.0532
2.29	18.118
2.284	18.3088
2.278	18.5242
2.272	18.4482
2.266	18.1995
2.26	17.6817
2.254	16.8754
2.248	16.1078
2.242	15.7441
2.236	16.0156
2.23	16.2617
2.224	16.1356
2.218	15.5025
2.212	14.8355
2.206	14.4895
2.2	14.9586
2.194	15.627
2.188	15.9983
2.182	16.1069
2.176	16.0572
2.17	16.0125
2.164	15.9359
2.158	15.8085
2.152	15.7219
2.146	15.6238
2.14	15.4045
2.134	15.2117
2.128	15.0622
2.122	14.9304
2.116	14.6355
2.11	14.4308
2.104	14.2275
2.098	13.9226
2.092	13.885
2.086	13.6218
2.08	13.3978
2.074	13.2319
2.068	13.0686
2.062	12.8458
2.056	12.7843
2.05	12.5645
2.044	12.4303
2.038	12.2476
2.032	12.0209
2.026	11.8658
2.02	11.6776
2.014	11.5347
2.008	11.3447
2.002	11.1278
1.996	11.0853
1.99	10.8223
1.984	10.6645
1.978	10.4568
1.972	10.3104
1.966	10.19
1.96	10.011
1.954	9.75113
1.948	9.64267
1.942	9.48898
1.936	9.30239
1.93	9.10642
1.924	9.04094
1.918	8.83889
1.912	8.75701
1.906	8.8614
1.9	8.53069
1.894	8.29449
1.888	8.15625
1.882	8.03029
1.876	7.79084
1.87	7.63274
1.864	7.50996
1.858	7.34488
1.852	7.2714
1.846	7.09469
1.84	6.94663
1.834	6.81028
1.828	6.7239
1.822	6.59138
1.816	6.45531
1.81	6.36106
1.804	6.16796
1.798	6.07739
1.792	5.95256
1.786	5.88778
1.78	5.73687
1.774	5.6227
1.768	5.54265
1.762	5.45555
1.756	5.32072
1.75	5.25635
1.744	5.1638
1.738	5.01639
1.732	4.98032
1.726	4.88005
1.72	4.75129
1.714	4.72769
1.708	4.61805
1.702	4.56381
1.696	4.43553
1.69	4.37487
1.684	4.28192
1.678	4.15324
1.672	4.17554
1.666	4.11047
1.66	4.05804
1.654	3.87744
1.648	3.92296
1.642	3.91404
1.636	3.80695
1.63	3.71416
1.624	3.65497
1.618	3.61455
1.612	3.59768
1.606	3.48061
1.6	3.40245
1.594	3.36273
1.588	3.36112
1.582	3.39518
1.576	3.19206
1.57	3.20201
1.564	3.18699
1.558	3.16671
1.552	3.14847
1.546	3.05004
1.54	3.01651
1.534	3.00258
1.528	2.93246
1.522	2.86835
1.516	2.95224
1.51	2.85709
1.504	2.79719
1.498	2.81428
1.492	2.81305
1.486	2.75762
1.48	2.71937
1.474	2.71102
1.468	2.64664
1.462	2.65557
1.456	2.62885
1.45	2.63575
1.444	2.55426
1.438	2.52297
1.432	2.52593
1.426	2.46745
1.42	2.50691
1.414	2.53776
1.408	2.49966
1.402	2.53943
1.396	2.53201
1.39	2.53314
1.384	2.41439
1.378	2.36104
1.372	2.33604
1.366	2.4614
1.36	2.44419
1.354	2.36753
1.348	2.42034
1.342	2.3659
1.336	2.37853
1.33	2.34956
1.324	2.40609
1.318	2.36204
1.312	2.34152
1.306	2.34279
1.3	2.35151
1.294	2.33358
1.288	2.27325
1.282	2.36161
1.276	2.33699
1.27	2.37059
1.264	2.31469
1.258	2.36049
1.252	2.31866
1.246	2.27942
1.24	2.32495
1.234	2.34114
1.228	2.31762
1.222	2.31468
1.216	2.31268
1.21	2.31969
1.204	2.29707
1.198	2.3106
1.192	2.27913
1.186	2.31661
1.18	2.30026
1.174	2.28994
1.168	2.23332
1.162	2.2812
1.156	2.29492
1.15	2.36699
1.144	2.28618
1.138	2.36775
1.132	2.29085
1.126	2.30521
1.12	2.22622
1.114	2.27585
1.108	2.30832
1.102	2.25675
1.096	2.29266
1.09	2.32641
1.084	2.33593
1.078	2.30885
1.072	2.3306
1.066	2.30038
1.06	2.32128
1.054	2.29425
1.048	2.39616
1.042	2.32328
1.036	2.32886
1.03	2.32201
1.024	2.27604
1.018	2.30533
1.012	2.38115
1.006	2.32982
1	2.31427
0.994	2.31243
0.988	2.33354
0.982	2.32512
0.976	2.37022
0.97	2.38276
0.964	2.36667
0.958	2.3758
0.952	2.30513
0.946	2.37232
0.94	2.37948
0.934	2.36811
0.928	2.40862
0.922	2.38486
0.916	2.36882
0.91	2.39823
0.904	2.40617
0.898	2.4053
0.892	2.34435
0.886	2.37575
0.88	2.31816
0.874	2.34966
0.868	2.34204
0.862	2.27307
0.856	2.66474
0.85	2.65873
0.844	2.6535
0.838	2.64013
0.832	2.62291
0.826	2.61501
0.82	2.60421
0.814	2.58904
0.808	2.5728
0.802	2.57115
0.796	2.54815
0.79	2.54471
0.784	2.54051
0.778	2.52592
0.772	2.51738
0.766	2.50943
0.76	2.4992
0.754	2.49502
0.748	2.4897
0.742	2.4873
0.736	2.48412
0.73	2.47836
0.724	2.47556
0.718	2.47291
0.712	2.47222
0.706	2.46826
0.7	2.46702
0.694	2.46799
0.688	2.46616
0.682	2.46382
0.676	2.46778
0.67	2.46903
0.664	2.47329
0.658	2.47701
0.652	2.48139
0.646	2.48853
0.64	2.49425
0.634	2.50281
0.628	2.512
0.622	2.51999
0.616	2.52854
0.61	2.53787
0.604	2.54627
0.598	2.55389
0.592	2.56332
0.586	2.56985
0.58	2.5742
0.574	2.58017
0.568	2.58484
0.562	2.59087
0.556	2.5962
0.55	2.60284
0.544	2.60861
0.538	2.61678
0.532	2.62525
0.526	2.63231
0.52	2.64233
0.514	2.65097
0.508	2.65982
0.502	2.6694
0.496	2.67936
0.49	2.69318
0.484	2.71266
0.478	2.72968
0.472	2.74397
0.466	2.76031
0.46	2.77956
0.454	2.79912
0.448	2.81741
0.442	2.84181
0.436	2.86846
0.43	2.89092
0.424	2.92282
0.418	2.958
0.412	2.99742
0.406	3.03971
0.4	3.08907
