Name: AtacamiteCu_2Cl(OH)_3
Type: Mineral
Class: Halides
Particle Size: 0-45um
Sample No.: H-4A
Owner: JPL
Wavelength Range: VNIR-SWIR
Origin: Chile, Atacama, Copiapo
Measurement: Hemispherical reflectance
X Units: Wavelength (micrometers)
Y Units: Reflectance (percent)
wavelength	value
0.4	16.67
0.403	17.54
0.406	18.41
0.409	19.11
0.412	19.83
0.415	20.61
0.418	21.37
0.421	22.12
0.424	23.06
0.427	23.81
0.43	24.64
0.433	25.4
0.436	26.25
0.439	26.94
0.442	27.66
0.445	28.37
0.448	28.98
0.451	29.58
0.454	30.12
0.457	30.62
0.46	31.03
0.463	31.68
0.466	32.29
0.469	32.77
0.472	33.2
0.475	33.54
0.478	33.97
0.481	34.32
0.484	34.59
0.487	35.01
0.49	35.16
0.493	35.43
0.496	35.71
0.499	35.89
0.502	36.01
0.505	36.14
0.508	36.36
0.511	36.44
0.514	36.58
0.517	36.52
0.52	36.61
0.523	36.59
0.526	36.65
0.529	36.62
0.532	36.48
0.535	36.25
0.538	36.23
0.541	35.93
0.544	35.67
0.547	35.59
0.55	35.18
0.553	34.82
0.556	34.45
0.559	34.13
0.562	33.84
0.565	33.37
0.568	32.79
0.571	32.21
0.574	31.67
0.577	31.19
0.58	30.49
0.583	29.87
0.586	29.19
0.589	28.65
0.592	27.95
0.595	27.39
0.598	26.7
0.601	26.17
0.604	25.53
0.607	24.78
0.61	24.29
0.613	23.72
0.616	23.08
0.619	22.52
0.622	22.08
0.625	21.37
0.628	20.99
0.631	20.5
0.634	20.14
0.637	19.66
0.64	19.26
0.643	18.79
0.646	18.43
0.649	18.07
0.652	17.78
0.655	17.36
0.658	17.15
0.661	16.93
0.664	16.64
0.667	16.43
0.67	16.1
0.673	16.02
0.676	15.82
0.679	15.71
0.682	15.62
0.685	15.5
0.688	15.63
0.691	15.53
0.694	15.1
0.697	15
0.7	15.04
0.703	14.76
0.706	14.75
0.709	14.72
0.712	14.72
0.715	14.69
0.718	14.73
0.721	14.66
0.724	14.74
0.727	14.71
0.73	14.85
0.733	14.92
0.736	14.97
0.739	14.88
0.742	15.08
0.745	15.12
0.748	15.18
0.751	15.37
0.754	15.45
0.757	15.48
0.76	15.55
0.763	15.74
0.766	15.79
0.769	15.95
0.772	16.13
0.775	16.23
0.778	16.25
0.781	16.46
0.784	16.58
0.787	16.7
0.79	16.88
0.793	17.15
0.796	17.41
0.799	17.42
0.808	18.45
0.82	18.94
0.832	19.51
0.844	20
0.856	20.72
0.868	21.32
0.88	22.08
0.892	22.76
0.904	23.72
0.916	24.63
0.928	25.73
0.94	26.83
0.952	28.07
0.964	29.28
0.976	30.58
0.988	31.86
1	32.91
1.012	34.34
1.024	35.57
1.036	36.77
1.048	37.93
1.06	39
1.072	39.9
1.084	40.94
1.096	41.82
1.108	42.82
1.12	43.71
1.132	44.5
1.144	45.19
1.156	46.01
1.168	46.73
1.18	47.54
1.192	48.37
1.204	49.03
1.216	49.81
1.228	50.57
1.24	51.22
1.252	51.97
1.264	52.63
1.276	53.4
1.288	54.1
1.3	54.64
1.312	55.27
1.324	55.92
1.336	56.43
1.348	56.91
1.36	57.42
1.372	57.52
1.384	57.22
1.396	56.09
1.408	53.68
1.42	55.28
1.432	56.6
1.444	57.17
1.456	57.33
1.468	56.92
1.48	59.32
1.492	59.85
1.504	61.24
1.516	62.47
1.528	63.25
1.54	64.15
1.552	63.9
1.564	65.36
1.576	66.32
1.588	66.71
1.6	67.34
1.612	68.06
1.624	68.46
1.636	68.99
1.648	69.36
1.66	69.91
1.672	70.25
1.684	70.48
1.696	70.79
1.708	71.02
1.72	71.3
1.732	71.44
1.744	71.55
1.756	71.61
1.768	71.58
1.78	71.52
1.792	71.65
1.804	71.79
1.816	71.93
1.828	71.72
1.84	70.47
1.852	68.57
1.864	67.41
1.876	62.77
1.888	56.49
1.9	50.84
1.912	49.19
1.924	49.97
1.936	50.88
1.948	51.93
1.96	52.97
1.972	53.46
1.984	53.95
1.996	56.5
2.008	59.77
2.02	61.87
2.032	63.45
2.044	64.63
2.056	65.61
2.068	66.26
2.08	66.68
2.092	66.83
2.104	67.15
2.116	67.28
2.128	66.57
2.14	64.11
2.152	61.65
2.164	62.22
2.176	63.55
2.188	63.31
2.2	62.74
2.212	62.19
2.224	61.15
2.236	58.77
2.248	56.8
2.26	56.18
2.272	56.48
2.284	56.86
2.296	56.96
2.308	56.27
2.32	55.09
2.332	53.8
2.344	53.56
2.356	53.48
2.368	52.97
2.38	52.54
2.392	52.13
2.404	52.02
2.416	51.76
2.428	50.99
2.44	48.93
2.452	46.14
2.464	44.25
2.476	44.38
2.488	45.23
2.5	45.51
