Name: Arenaceous Shale
Type: Rock
Class: Sedimentary
Subclass: Shale
Particle Size: Solid surface
Sample No.: Ward53.txt
Owner: JPL
Origin: Ward's Collection of American Rocks.  Sample locality - Greene County, New York.
Description: A dark gray, gritty rock with irregular shaly partings.
Measurement: Hemispherical reflectance
X Units: Wavelength (micrometers)
Y Units: Reflectance (percent)
wavelength	value
2.5	7.91871
2.494	7.84602
2.488	7.77321
2.482	7.87575
2.476	7.90857
2.47	7.9352
2.464	8.06499
2.458	7.90217
2.452	7.99304
2.446	7.98468
2.44	8.07125
2.434	7.94736
2.428	8.06511
2.422	8.11388
2.416	8.18212
2.41	8.22027
2.404	8.26346
2.398	8.22771
2.392	8.26769
2.386	8.38818
2.38	8.3709
2.374	8.33734
2.368	8.36456
2.362	8.27345
2.356	8.27245
2.35	8.2898
2.344	8.24812
2.338	8.34506
2.332	8.36635
2.326	8.39371
2.32	8.50357
2.314	8.52409
2.308	8.67935
2.302	8.73933
2.296	8.75661
2.29	8.7367
2.284	8.77683
2.278	8.77301
2.272	8.8139
2.266	8.80839
2.26	8.79551
2.254	8.73706
2.248	8.8037
2.242	8.76891
2.236	8.71485
2.23	8.64389
2.224	8.59661
2.218	8.63296
2.212	8.80891
2.206	8.64659
2.2	8.74929
2.194	8.84337
2.188	8.97402
2.182	8.98874
2.176	9.08017
2.17	9.1375
2.164	9.28753
2.158	9.27493
2.152	9.22255
2.146	9.28994
2.14	9.33288
2.134	9.32061
2.128	9.25333
2.122	9.28347
2.116	9.16672
2.11	9.19921
2.104	9.14552
2.098	9.1353
2.092	9.22822
2.086	9.2238
2.08	9.28086
2.074	9.27303
2.068	9.27216
2.062	9.2903
2.056	9.32611
2.05	9.32589
2.044	9.31635
2.038	9.38392
2.032	9.34763
2.026	9.32329
2.02	9.24449
2.014	9.28614
2.008	9.26693
2.002	9.23435
1.996	9.25846
1.99	9.27666
1.984	9.21678
1.978	9.20262
1.972	9.20748
1.966	9.23171
1.96	9.19912
1.954	9.17748
1.948	9.12721
1.942	9.14092
1.936	9.07135
1.93	9.03456
1.924	8.9772
1.918	9.03682
1.912	8.96589
1.906	9.04371
1.9	9.03621
1.894	9.25888
1.888	9.3011
1.882	9.34702
1.876	9.36327
1.87	9.35811
1.864	9.48061
1.858	9.49494
1.852	9.49731
1.846	9.46772
1.84	9.51342
1.834	9.57058
1.828	9.514
1.822	9.49949
1.816	9.53467
1.81	9.56033
1.804	9.50778
1.798	9.51009
1.792	9.56678
1.786	9.6404
1.78	9.55072
1.774	9.47328
1.768	9.55946
1.762	9.58925
1.756	9.53333
1.75	9.50434
1.744	9.50609
1.738	9.56639
1.732	9.52763
1.726	9.55371
1.72	9.5386
1.714	9.50674
1.708	9.53727
1.702	9.50212
1.696	9.61966
1.69	9.56008
1.684	9.47852
1.678	9.52888
1.672	9.57059
1.666	9.50914
1.66	9.53668
1.654	9.51273
1.648	9.5479
1.642	9.51329
1.636	9.52327
1.63	9.50777
1.624	9.44753
1.618	9.52069
1.612	9.39444
1.606	9.50271
1.6	9.44506
1.594	9.40851
1.588	9.39615
1.582	9.4315
1.576	9.33553
1.57	9.39295
1.564	9.36471
1.558	9.36286
1.552	9.37562
1.546	9.29068
1.54	9.2883
1.534	9.38317
1.528	9.2965
1.522	9.31049
1.516	9.28229
1.51	9.24572
1.504	9.23635
1.498	9.20372
1.492	9.15803
1.486	9.1405
1.48	9.17578
1.474	9.16055
1.468	9.15427
1.462	9.12361
1.456	9.11842
1.45	9.05096
1.444	9.08454
1.438	8.9987
1.432	8.95238
1.426	8.89668
1.42	8.79692
1.414	8.76252
1.408	8.80609
1.402	8.8905
1.396	8.92809
1.39	8.94444
1.384	8.88133
1.378	8.94627
1.372	8.93942
1.366	8.90851
1.36	8.84331
1.354	8.8452
1.348	8.83084
1.342	8.8915
1.336	8.86968
1.33	8.77069
1.324	8.82258
1.318	8.84003
1.312	8.78116
1.306	8.743
1.3	8.76102
1.294	8.72311
1.288	8.74099
1.282	8.80184
1.276	8.69687
1.27	8.68929
1.264	8.66376
1.258	8.63934
1.252	8.66811
1.246	8.58052
1.24	8.62461
1.234	8.60977
1.228	8.55405
1.222	8.61159
1.216	8.5468
1.21	8.54109
1.204	8.55571
1.198	8.47469
1.192	8.47884
1.186	8.49367
1.18	8.44246
1.174	8.45842
1.168	8.41256
1.162	8.43562
1.156	8.39018
1.15	8.35002
1.144	8.37341
1.138	8.40375
1.132	8.30982
1.126	8.35789
1.12	8.27722
1.114	8.28481
1.108	8.34244
1.102	8.27196
1.096	8.24216
1.09	8.20833
1.084	8.34273
1.078	8.2256
1.072	8.1807
1.066	8.29556
1.06	8.26846
1.054	8.20399
1.048	8.18938
1.042	8.17526
1.036	8.12832
1.03	8.19605
1.024	8.14985
1.018	8.09291
1.012	8.15282
1.006	8.01195
1	8.09872
0.994	8.05811
0.988	8.04404
0.982	8.14202
0.976	8.0495
0.97	8.06025
0.964	8.01887
0.958	7.95953
0.952	7.99513
0.946	7.92028
0.94	8.01567
0.934	7.92505
0.928	7.88397
0.922	7.9245
0.916	7.87448
0.91	7.858
0.904	7.83849
0.898	7.83645
0.892	7.81726
0.886	7.75149
0.88	7.74161
0.874	7.74087
0.868	7.6677
0.862	7.67079
0.856	7.69469
0.85	7.71262
0.844	7.72854
0.838	7.72654
0.832	7.73274
0.826	7.7267
0.82	7.71728
0.814	7.7099
0.808	7.69005
0.802	7.68052
0.796	7.66592
0.79	7.64299
0.784	7.62734
0.778	7.61439
0.772	7.58357
0.766	7.57421
0.76	7.55501
0.754	7.53844
0.748	7.52239
0.742	7.50518
0.736	7.48661
0.73	7.46986
0.724	7.44655
0.718	7.43712
0.712	7.412
0.706	7.3957
0.7	7.37996
0.694	7.3596
0.688	7.34187
0.682	7.32319
0.676	7.30433
0.67	7.28566
0.664	7.26763
0.658	7.24565
0.652	7.22833
0.646	7.20958
0.64	7.19148
0.634	7.17348
0.628	7.15482
0.622	7.13459
0.616	7.11658
0.61	7.09824
0.604	7.08244
0.598	7.06616
0.592	7.05131
0.586	7.03245
0.58	7.01372
0.574	6.99462
0.568	6.9783
0.562	6.95937
0.556	6.92996
0.55	6.9107
0.544	6.89147
0.538	6.87498
0.532	6.85913
0.526	6.84324
0.52	6.82872
0.514	6.81178
0.508	6.80171
0.502	6.78514
0.496	6.75784
0.49	6.73335
0.484	6.69686
0.478	6.68403
0.472	6.67092
0.466	6.66378
0.46	6.65389
0.454	6.64459
0.448	6.63037
0.442	6.60844
0.436	6.59526
0.43	6.57726
0.424	6.5572
0.418	6.54645
0.412	6.53915
0.406	6.52793
0.4	6.51914
