Name: Grey calcareous silty soil
Type: Soils
Class: Aridisol
Particle Size: see additional information
Sample No.: fgg024
Owner: University of NSW
Origin: Fowlers Gap, western New South Wales, Australia
Description: Parent material consists of phyllite, some calcrete deposits
Measurement: Directional hemispherical reflectance
X Units: Wavelength (micrometers)
Y Units: Reflectance (percent)
wavelength	value
14.013	2.0719
13.79	2.3646
13.573	2.1658
13.363	2.1636
13.16	2.4091
12.962	2.6999
12.771	2.8171
12.585	2.538
12.404	1.9295
12.228	1.8174
12.058	2.1441
11.892	2.6161
11.73	2.8867
11.573	3.0339
11.42	3.0138
11.271	3.2324
11.126	3.4131
10.985	3.3768
10.847	3.5833
10.713	3.4159
10.581	3.4323
10.453	3.9257
10.328	4.0895
10.206	4.7074
10.087	5.368
9.971	6.0461
9.857	6.4342
9.746	7.1602
9.637	8.3941
9.531	8.8278
9.427	9.7194
9.325	10.7533
9.226	10.488
9.128	10.0324
9.033	9.278
8.939	9.1935
8.848	9.7972
8.758	9.7416
8.67	8.7972
8.584	9.0331
8.5	10.1933
8.417	10.7433
8.336	11.2601
8.256	12.2206
8.178	12.311
8.101	9.63
8.026	7.1352
7.952	5.4586
7.88	4.1329
7.809	3.4125
7.739	3.3769
7.67	3.2502
7.602	3.1464
7.536	3.0826
7.471	2.973
7.407	3.0393
7.344	2.911
7.282	3.0331
7.221	3.1242
7.161	3.0207
7.103	3.0164
7.045	3.0036
6.988	2.9345
6.932	3.0998
6.876	3.2191
6.822	3.3518
6.769	3.5566
6.716	3.5563
6.664	3.7236
6.613	3.7092
6.563	3.7235
6.514	4.0604
6.465	4.8495
6.417	5.0811
6.37	4.6479
6.323	3.935
6.277	3.2598
6.232	2.8521
6.187	2.5773
6.143	2.5749
6.1	2.8072
6.057	2.9303
6.015	3.0599
5.973	3.2163
5.932	3.4931
5.892	4.264
5.852	5.2921
5.813	6.4684
5.774	7.082
5.735	7.8973
5.698	8.1376
5.66	7.4037
5.623	6.1055
5.587	5.6758
5.551	5.7801
5.516	6.5721
5.481	7.5677
5.446	8.05
5.412	7.0126
5.378	5.3819
5.345	4.8431
5.312	5.2207
5.28	5.6836
5.248	6.9733
5.216	8.9211
5.185	9.6549
5.154	9.4566
5.123	9.5701
5.093	9.4243
5.063	8.9673
5.034	8.9525
5.005	8.9664
4.976	9.9044
4.947	11.9031
4.919	13.1219
4.891	16.4979
4.864	19.2588
4.837	20.7065
4.81	21.5788
4.783	22.2435
4.757	22.9607
4.731	23.4771
4.705	23.6265
4.68	23.1435
4.654	24.3955
4.629	25.4424
4.605	26.2784
4.58	26.7095
4.556	27.0454
4.532	26.7003
4.509	25.8586
4.485	25.1302
4.462	25.2354
4.439	26.1533
4.416	26.9349
4.394	27.9476
4.372	29.1326
4.35	29.9585
4.328	30.5084
4.306	30.8686
4.285	30.8459
4.264	31.0523
4.243	31.8372
4.222	32.2366
4.202	32.2773
4.181	32.6018
4.161	33.0099
4.141	33.3051
4.122	33.643
4.102	34.0574
4.083	34.2478
4.063	34.4127
4.044	34.3379
4.026	34.1568
4.007	33.6662
3.988	33.1357
3.97	32.8167
3.952	33.0674
3.934	33.4827
3.916	33.4994
3.898	33.5417
3.881	33.363
3.864	33.1405
3.846	33.2017
3.829	32.9332
3.812	32.7526
3.796	32.4198
3.779	32.258
3.763	31.8212
3.746	31.371
3.73	30.9618
3.714	30.6239
3.698	30.0683
3.682	29.6882
3.667	29.2596
3.651	28.7634
3.636	28.2091
3.621	27.5503
3.606	26.8212
3.591	26.1693
3.576	25.3526
3.561	24.5603
3.546	23.6605
3.532	22.9638
3.518	21.9847
3.503	21.1068
3.489	20.8017
3.475	20.3909
3.461	19.7971
3.447	19.1648
3.434	18.3692
3.42	17.3234
3.407	16.9441
3.393	16.7072
3.38	16.1199
3.367	15.7144
3.354	15.2482
3.341	14.7598
3.328	14.2297
3.315	13.7207
3.302	12.9466
3.29	12.5736
3.277	12.0477
3.265	11.5835
3.253	11.0745
3.24	10.6096
3.228	10.2237
3.216	9.6514
3.204	9.1196
3.193	8.7408
3.181	8.3464
3.169	7.9714
3.158	7.5399
3.146	7.1756
3.135	6.8223
3.123	6.5621
3.112	6.163
3.101	5.9005
3.09	5.7849
3.079	5.4044
3.068	5.3301
3.057	5.2159
3.046	4.9942
3.036	4.9146
3.025	4.9269
3.014	4.7739
3.004	4.6339
2.994	4.5169
2.983	4.3535
2.973	4.4115
2.963	4.2377
2.953	4.2305
2.943	4.1364
2.933	3.9898
2.923	4.1083
2.913	4.097
2.903	4.1847
2.893	4.2977
2.884	4.1296
2.874	4.5507
2.865	4.4593
2.855	4.754
2.846	4.6702
2.836	4.4126
2.827	4.4859
2.818	4.426
2.809	4.3833
2.8	3.6849
2.791	3.855
2.782	3.7656
2.773	3.3569
2.764	2.8384
2.755	2.961
2.746	3.5447
2.737	3.7344
2.729	4.9876
2.72	6.9079
2.712	7.6563
2.703	6.5488
2.695	13.7354
2.686	23.2062
2.678	29.3665
2.67	32.7782
2.662	34.7746
2.654	36.201
2.645	37.4844
2.637	38.1123
2.629	38.8029
2.621	39.1932
2.613	39.5571
2.605	39.9779
2.598	40.0658
2.59	40.2341
2.582	40.645
2.574	40.9066
2.567	41.1171
2.559	41.2311
2.552	41.5595
2.544	41.5684
2.537	41.6853
2.529	41.7823
2.522	41.7701
2.515	42.0545
2.507	41.9645
2.5	42.4564
2.493	42.409
2.486	42.7552
2.478	42.7236
2.471	43.046
2.464	43.3024
2.457	43.4792
2.45	43.625
2.443	43.819
2.437	44.245
2.43	44.9185
2.423	45.2716
2.416	45.5008
2.409	46.1076
2.403	46.2036
2.396	46.1014
2.389	46.0741
2.383	46.117
2.376	46.1397
2.37	45.9766
2.363	45.7828
2.357	45.6402
2.35	45.6455
2.344	45.8545
2.338	46.568
2.331	46.8776
2.325	47.5903
2.319	47.8017
2.313	48.4053
2.306	48.8338
2.3	49.395
2.294	49.5253
2.288	49.9193
2.282	50.0682
2.276	50.0513
2.27	49.8683
2.264	49.6982
2.258	49.4172
2.252	49.2192
2.247	49.1805
2.241	49.3004
2.235	49.392
2.229	49.1282
2.223	48.6163
2.218	48.0488
2.212	47.7073
2.206	47.9679
2.201	49.154
2.195	49.8046
2.189	50.5393
2.184	51.1672
2.179	51.5645
2.173	51.8421
2.168	51.9221
2.162	52.2639
2.157	52.6598
2.151	52.827
2.146	52.9883
2.141	53.2553
2.135	53.2144
2.13	53.2845
2.125	53.3267
2.12	53.3405
2.115	53.1455
2.109	53.1597
2.104	53.2464
2.099	53.2282
2.094	53.5384
2.089	53.4678
2.084	53.2469
2.079	53.5375
2.074	53.648
2.069	53.1503
2.064	53.5557
2.059	53.6497
2.054	53.2006
2.049	53.2796
2.045	53.5231
2.04	53.4557
2.035	52.9959
2.03	53.1263
2.025	52.8073
2.021	52.7553
2.016	52.7114
2.011	52.5029
2.007	52.1784
2.002	52.173
