Name: Nontronite Na_0.33Fe_2^3+(Si,Al)_4O_10(OH)_2.H_2O
Type: Mineral
Class: Silicates
Subclass: Phyllosilicates
Particle Size: 0-45um
Sample No.: PS-6B
Owner: JPL
Wavelength Range: VNIR-SWIR
Origin: Germany, Westphalia, Hohen Hagen
Measurement: Hemispherical reflectance
X Units: Wavelength (micrometers)
Y Units: Reflectance (percent)
wavelength	value
0.4	7.39
0.403	7.63
0.406	7.91
0.409	8.1
0.412	8.22
0.415	8.22
0.418	8.39
0.421	8.5
0.424	8.7
0.427	8.8
0.43	8.98
0.433	9.08
0.436	9.21
0.439	9.51
0.442	9.51
0.445	9.77
0.448	9.96
0.451	10.22
0.454	10.45
0.457	10.81
0.46	11.03
0.463	11.75
0.466	12.56
0.469	13.24
0.472	14.15
0.475	14.9
0.478	15.53
0.481	16.31
0.484	16.88
0.487	17.47
0.49	17.85
0.493	18.43
0.496	18.99
0.499	19.46
0.502	20.15
0.505	20.59
0.508	21.17
0.511	21.83
0.514	22.66
0.517	23.37
0.52	24.21
0.523	25.17
0.526	26
0.529	27.1
0.532	28.16
0.535	29.18
0.538	30.31
0.541	31.43
0.544	32.55
0.547	33.59
0.55	34.66
0.553	35.77
0.556	36.58
0.559	37.25
0.562	38.36
0.565	39.23
0.568	39.78
0.571	40.31
0.574	40.69
0.577	41.08
0.58	41.53
0.583	41.83
0.586	42.14
0.589	42.26
0.592	42.56
0.595	42.75
0.598	42.78
0.601	42.88
0.604	42.75
0.607	42.79
0.61	42.71
0.613	42.78
0.616	42.66
0.619	42.53
0.622	42.46
0.625	42.38
0.628	42.51
0.631	42.5
0.634	42.41
0.637	42.4
0.64	42.39
0.643	42.7
0.646	42.74
0.649	42.9
0.652	42.99
0.655	43.23
0.658	43.55
0.661	43.77
0.664	44.1
0.667	44.49
0.67	44.86
0.673	45.38
0.676	45.77
0.679	46.12
0.682	46.61
0.685	47.01
0.688	47.73
0.691	48.16
0.694	48.59
0.697	49.04
0.7	49.35
0.703	50.07
0.706	50.62
0.709	51.05
0.712	51.53
0.715	51.77
0.718	52.27
0.721	52.52
0.724	52.97
0.727	53.31
0.73	53.52
0.733	53.85
0.736	54.01
0.739	54.15
0.742	54.55
0.745	54.51
0.748	54.66
0.751	54.87
0.754	54.88
0.757	54.86
0.76	55.02
0.763	54.81
0.766	54.88
0.769	54.84
0.772	54.66
0.775	54.74
0.778	54.44
0.781	54.25
0.784	54.16
0.787	54.06
0.79	53.69
0.793	53.58
0.796	53.27
0.799	53.13
0.808	52.29
0.82	51.12
0.832	50.11
0.844	49.04
0.856	48.19
0.868	47.42
0.88	46.89
0.892	46.35
0.904	46.02
0.916	45.84
0.928	45.81
0.94	45.9
0.952	46.14
0.964	46.47
0.976	46.89
0.988	47.51
1	48.04
1.012	48.87
1.024	49.72
1.036	50.66
1.048	51.69
1.06	52.78
1.072	53.89
1.084	55.01
1.096	56.17
1.108	57.36
1.12	58.51
1.132	59.54
1.144	60.2
1.156	60.85
1.168	61.6
1.18	62.24
1.192	62.64
1.204	63.09
1.216	63.36
1.228	63.58
1.24	63.84
1.252	64.01
1.264	64.17
1.276	64.18
1.288	64.24
1.3	64.14
1.312	63.99
1.324	63.74
1.336	63.58
1.348	63.31
1.36	63.14
1.372	62.54
1.384	60.85
1.396	57.38
1.408	53.69
1.42	52.51
1.432	51.95
1.444	55.28
1.456	56.7
1.468	57.45
1.48	58.49
1.492	59.39
1.504	60.06
1.516	60.65
1.528	61.05
1.54	61.48
1.552	61.76
1.564	62.01
1.576	62.18
1.588	62.36
1.6	62.57
1.612	62.67
1.624	62.78
1.636	62.77
1.648	62.81
1.66	62.88
1.672	62.8
1.684	62.79
1.696	62.81
1.708	62.75
1.72	62.65
1.732	62.48
1.744	62.25
1.756	62.11
1.768	61.96
1.78	61.72
1.792	61.64
1.804	61.6
1.816	61.52
1.828	61.39
1.84	61.09
1.852	60.25
1.864	58.57
1.876	54.16
1.888	46.79
1.9	38.86
1.912	37.82
1.924	40.17
1.936	42.19
1.948	43.56
1.96	44.68
1.972	45.92
1.984	47.46
1.996	48.96
2.008	50.51
2.02	51.96
2.032	52.99
2.044	54.01
2.056	54.77
2.068	55.4
2.08	55.99
2.092	56.45
2.104	56.96
2.116	57.38
2.128	57.54
2.14	57.7
2.152	57.81
2.164	57.56
2.176	57.23
2.188	56.77
2.2	56.58
2.212	56.41
2.224	56.14
2.236	55.64
2.248	54.1
2.26	51
2.272	47.21
2.284	45.45
2.296	46.98
2.308	49.74
2.32	51.02
2.332	50.8
2.344	49.93
2.356	48.65
2.368	47.01
2.38	44.82
2.392	42.97
2.404	42.22
2.416	42.05
2.428	41.59
2.44	40.99
2.452	40.15
2.464	39
2.476	37.79
2.488	36.76
2.5	36
