Name: Chalcopyrite CuFeS_2
Type: Mineral
Class: Sulfides
Particle Size: 0-45um
Sample No.: S-4A
Owner: JPL
Origin: Canada, Quebec, Rouyn District.
Measurement: Hemispherical reflectance
X Units: Wavelength (micrometers)
Y Units: Reflectance (percent)
wavelength	value
2.5	19.0505
2.494	19.6755
2.488	19.8234
2.482	20.0222
2.476	19.6487
2.47	19.6211
2.464	19.9991
2.458	19.7538
2.452	19.7126
2.446	19.5106
2.44	19.6547
2.434	19.5585
2.428	20.0117
2.422	19.7665
2.416	19.5505
2.41	19.8635
2.404	19.7235
2.398	19.6693
2.392	19.5853
2.386	19.5084
2.38	19.6281
2.374	19.6951
2.368	19.5979
2.362	19.5771
2.356	19.2782
2.35	19.5097
2.344	19.4368
2.338	19.353
2.332	19.3362
2.326	19.4103
2.32	19.2511
2.314	19.3588
2.308	19.2332
2.302	19.012
2.296	19.1668
2.29	19.1229
2.284	19.0376
2.278	19.1327
2.272	19.0302
2.266	19.1339
2.26	19.1341
2.254	18.956
2.248	18.9971
2.242	18.8543
2.236	18.9503
2.23	18.9796
2.224	19.0694
2.218	18.9214
2.212	19.0659
2.206	19.0855
2.2	19.0404
2.194	18.9376
2.188	19.0446
2.182	18.7777
2.176	19.1221
2.17	19.1237
2.164	18.903
2.158	18.8117
2.152	19.2827
2.146	19.2626
2.14	19.1585
2.134	19.1534
2.128	19.0989
2.122	19.1844
2.116	19.0895
2.11	18.9736
2.104	19.065
2.098	18.9161
2.092	19.1057
2.086	19.1941
2.08	19.0301
2.074	19.0956
2.068	19.2122
2.062	19.0803
2.056	19.0279
2.05	19.1933
2.044	19.0019
2.038	19.1519
2.032	19.1147
2.026	18.9994
2.02	19.0139
2.014	18.8504
2.008	19.1672
2.002	19.042
1.996	19.0499
1.99	18.959
1.984	18.961
1.978	18.7959
1.972	18.9229
1.966	18.9906
1.96	18.9579
1.954	18.9109
1.948	19.0491
1.942	18.973
1.936	19.0126
1.93	18.7586
1.924	18.3477
1.918	18.726
1.912	19.0277
1.906	18.8276
1.9	18.6988
1.894	18.8524
1.888	19.1059
1.882	18.8165
1.876	18.7178
1.87	18.6972
1.864	18.8676
1.858	18.7721
1.852	18.8217
1.846	18.6557
1.84	18.7424
1.834	18.7689
1.828	18.7197
1.822	18.8091
1.816	18.7846
1.81	18.7645
1.804	18.7649
1.798	18.6474
1.792	18.796
1.786	18.6247
1.78	18.5842
1.774	18.6207
1.768	18.6436
1.762	18.588
1.756	18.643
1.75	18.6768
1.744	18.6807
1.738	18.7834
1.732	18.5955
1.726	18.5076
1.72	18.5596
1.714	18.4513
1.708	18.4083
1.702	18.5308
1.696	18.5734
1.69	18.6752
1.684	18.5281
1.678	18.4254
1.672	18.5971
1.666	18.6407
1.66	18.5848
1.654	18.3345
1.648	18.5542
1.642	18.606
1.636	18.6663
1.63	18.3174
1.624	18.5828
1.618	18.4593
1.612	18.48
1.606	18.4996
1.6	18.5649
1.594	18.6929
1.588	18.6351
1.582	18.6017
1.576	18.752
1.57	18.6425
1.564	18.6146
1.558	18.7397
1.552	18.808
1.546	18.6207
1.54	18.5796
1.534	18.8687
1.528	18.8427
1.522	18.8386
1.516	18.9695
1.51	18.793
1.504	19.097
1.498	19.1493
1.492	18.7793
1.486	18.8416
1.48	18.8999
1.474	18.9486
1.468	19.0777
1.462	19.0329
1.456	19.1349
1.45	18.9158
1.444	18.9677
1.438	19.1486
1.432	19.0769
1.426	19.0618
1.42	19.2263
1.414	19.1689
1.408	19.2869
1.402	19.1637
1.396	19.1837
1.39	19.2577
1.384	19.3554
1.378	19.2729
1.372	19.1575
1.366	19.482
1.36	19.2535
1.354	19.4188
1.348	19.0859
1.342	19.2153
1.336	19.3781
1.33	19.2653
1.324	19.574
1.318	19.3011
1.312	19.3377
1.306	19.3303
1.3	19.4157
1.294	19.3059
1.288	19.2482
1.282	19.2555
1.276	19.4923
1.27	19.4611
1.264	19.2768
1.258	19.2718
1.252	19.3807
1.246	19.2334
1.24	19.4837
1.234	19.2318
1.228	19.2942
1.222	19.3274
1.216	19.4955
1.21	19.4277
1.204	19.4091
1.198	19.3263
1.192	19.4622
1.186	19.3333
1.18	19.5059
1.174	19.4569
1.168	19.5322
1.162	19.3749
1.156	19.2607
1.15	19.4699
1.144	19.2992
1.138	19.3728
1.132	19.5839
1.126	19.4655
1.12	19.2278
1.114	19.3932
1.108	19.2819
1.102	19.3449
1.096	19.3569
1.09	19.182
1.084	19.3944
1.078	19.1411
1.072	19.1852
1.066	19.1464
1.06	19.3429
1.054	19.3625
1.048	19.1191
1.042	19.0044
1.036	19.1017
1.03	19.0508
1.024	19.0971
1.018	19.2519
1.012	18.9622
1.006	19.1953
1	19.1111
0.994	18.9537
0.988	18.9998
0.982	18.9829
0.976	19.0993
0.97	18.9194
0.964	18.8957
0.958	18.9009
0.952	18.887
0.946	18.9557
0.94	18.9795
0.934	18.7357
0.928	18.8647
0.922	18.7588
0.916	18.686
0.91	18.7425
0.904	18.4935
0.898	18.789
0.892	18.6804
0.886	18.6585
0.88	18.6909
0.874	18.5787
0.868	18.5435
0.862	18.5988
0.856	19.0439
0.85	19.0357
0.844	19.0345
0.838	19.0671
0.832	19.0868
0.826	19.0923
0.82	19.1078
0.814	19.158
0.808	19.1403
0.802	19.1732
0.796	19.1883
0.79	19.216
0.784	19.235
0.778	19.2454
0.772	19.2675
0.766	19.2876
0.76	19.3085
0.754	19.3394
0.748	19.3474
0.742	19.3671
0.736	19.381
0.73	19.3831
0.724	19.4092
0.718	19.4191
0.712	19.4229
0.706	19.4378
0.7	19.4317
0.694	19.434
0.688	19.4334
0.682	19.4318
0.676	19.4234
0.67	19.4217
0.664	19.4117
0.658	19.3956
0.652	19.3803
0.646	19.3648
0.64	19.3439
0.634	19.3221
0.628	19.2905
0.622	19.2548
0.616	19.2157
0.61	19.1723
0.604	19.1175
0.598	19.0577
0.592	18.9937
0.586	18.9223
0.58	18.8396
0.574	18.7496
0.568	18.6434
0.562	18.5329
0.556	18.4011
0.55	18.2596
0.544	18.1077
0.538	17.9414
0.532	17.7679
0.526	17.5845
0.52	17.3906
0.514	17.1972
0.508	16.994
0.502	16.7783
0.496	16.5695
0.49	16.3394
0.484	16.0998
0.478	15.8674
0.472	15.6412
0.466	15.4304
0.46	15.2185
0.454	15.0319
0.448	14.8395
0.442	14.6407
0.436	14.4712
0.43	14.3338
0.424	14.2393
0.418	14.1696
0.412	14.145
0.406	14.1463
0.4	14.1935
