Name: Azurite Cu_3(CO_3)_2(OH)_2
Type: Mineral
Class: Carbonates
Particle Size: 125-500um
Sample No.: C-12A
Owner: JPL
Wavelength Range: VNIR-SWIR
Origin: USA, California, San Bernadino County, Near Valley Wells
Measurement: Hemispherical reflectance
X Units: Wavelength (micrometers)
Y Units: Reflectance (percent)
wavelength	value
0.4	7.73
0.403	8.19
0.406	8.55
0.409	8.97
0.412	9.43
0.415	9.79
0.418	10.28
0.421	10.66
0.424	11.11
0.427	11.44
0.43	12
0.433	12.34
0.436	12.75
0.439	13.06
0.442	13.49
0.445	13.92
0.448	14.23
0.451	14.66
0.454	14.98
0.457	15.29
0.46	15.46
0.463	15.79
0.466	16.01
0.469	16.24
0.472	16.51
0.475	16.87
0.478	17.08
0.481	17.17
0.484	17.34
0.487	17.5
0.49	17.75
0.493	17.92
0.496	18.25
0.499	18.36
0.502	18.61
0.505	18.77
0.508	18.91
0.511	19.05
0.514	19.15
0.517	19.31
0.52	19.22
0.523	19.4
0.526	19.43
0.529	19.42
0.532	19.26
0.535	18.99
0.538	18.79
0.541	18.67
0.544	18.26
0.547	17.93
0.55	17.38
0.553	16.88
0.556	16.41
0.559	16.04
0.562	15.42
0.565	14.77
0.568	14.06
0.571	13.34
0.574	12.74
0.577	12
0.58	11.52
0.583	10.86
0.586	10.32
0.589	9.72
0.592	9.25
0.595	8.72
0.598	8.27
0.601	7.94
0.604	7.44
0.607	7.13
0.61	6.69
0.613	6.33
0.616	6.09
0.619	5.74
0.622	5.53
0.625	5.28
0.628	5.11
0.631	4.82
0.634	4.67
0.637	4.47
0.64	4.36
0.643	4.19
0.646	4.03
0.649	3.96
0.652	3.73
0.655	3.74
0.658	3.57
0.661	3.63
0.664	3.44
0.667	3.33
0.67	3.21
0.673	3.05
0.676	3.21
0.679	3.1
0.682	3.04
0.685	2.99
0.688	2.98
0.691	2.92
0.694	2.92
0.697	2.88
0.7	2.79
0.703	2.81
0.706	2.75
0.709	2.69
0.712	2.75
0.715	2.64
0.718	2.64
0.721	2.63
0.724	2.64
0.727	2.64
0.73	2.63
0.733	2.63
0.736	2.52
0.739	2.52
0.742	2.63
0.745	2.63
0.748	2.51
0.751	2.57
0.754	2.63
0.757	2.63
0.76	2.63
0.763	2.51
0.766	2.51
0.769	2.57
0.772	2.63
0.775	2.62
0.778	2.47
0.781	2.57
0.784	2.62
0.787	2.68
0.79	2.74
0.793	2.97
0.796	2.69
0.799	2.93
0.808	3.3
0.82	3.31
0.832	3.31
0.844	3.38
0.856	3.43
0.868	3.56
0.88	3.62
0.892	3.75
0.904	3.87
0.916	3.99
0.928	4.1
0.94	4.4
0.952	4.71
0.964	5
0.976	5.3
0.988	5.71
1	5.94
1.012	6.41
1.024	6.79
1.036	7.24
1.048	7.55
1.06	8.05
1.072	8.32
1.084	8.73
1.096	9.03
1.108	9.43
1.12	9.81
1.132	10.15
1.144	10.5
1.156	10.78
1.168	11.15
1.18	11.43
1.192	11.83
1.204	12.28
1.216	12.54
1.228	12.84
1.24	13.22
1.252	13.6
1.264	13.98
1.276	14.32
1.288	14.7
1.3	14.91
1.312	15.25
1.324	15.63
1.336	15.78
1.348	16.19
1.36	16.31
1.372	16.29
1.384	15.91
1.396	14.9
1.408	12.52
1.42	13.67
1.432	14.81
1.444	15.51
1.456	15.93
1.468	16.26
1.48	16.44
1.492	16.69
1.504	17.59
1.516	18.72
1.528	19.62
1.54	20.37
1.552	21.01
1.564	21.59
1.576	22.14
1.588	22.65
1.6	23.1
1.612	23.6
1.624	24.13
1.636	24.6
1.648	25.12
1.66	25.52
1.672	25.73
1.684	25.62
1.696	26.07
1.708	26.6
1.72	26.85
1.732	27.11
1.744	27.54
1.756	27.68
1.768	28.13
1.78	28.47
1.792	28.62
1.804	28.93
1.816	29.22
1.828	29.53
1.84	29.53
1.852	29.11
1.864	27.59
1.876	23.7
1.888	18.22
1.9	13.46
1.912	12.01
1.924	12.66
1.936	13.53
1.948	14.51
1.96	15.25
1.972	16.15
1.984	17.25
1.996	18.41
2.008	19.39
2.02	20.21
2.032	20.9
2.044	21.55
2.056	22.25
2.068	22.96
2.08	23.62
2.092	24.15
2.104	24.54
2.116	24.87
2.128	25.06
2.14	24.88
2.152	24.33
2.164	23.59
2.176	22.72
2.188	21.55
2.2	19.9
2.212	18.81
2.224	17.85
2.236	15.97
2.248	13.7
2.26	11.94
2.272	11.03
2.284	11.13
2.296	12.25
2.308	13.21
2.32	13.07
2.332	11.93
2.344	10.72
2.356	10.44
2.368	10.57
2.38	10.57
2.392	10.29
2.404	10.11
2.416	10.09
2.428	9.91
2.44	9.76
2.452	9.51
2.464	9.25
2.476	9.13
2.488	8.96
2.5	8.76
