Name: Ulexite NaCaB_5O_6(OH)_6.5H_2O
Type: Mineral
Class: Borates
Particle Size: 45-125um
Sample No.: B-3A
Owner: JPL
Origin: USA, California, Kern County, Boron.
Measurement: Hemispherical reflectance
X Units: Wavelength (micrometers)
Y Units: Reflectance (percent)
wavelength	value
2.5	6.20747
2.494	6.00473
2.488	5.95792
2.482	5.98918
2.476	5.86313
2.47	5.97251
2.464	6.25595
2.458	6.54438
2.452	6.95434
2.446	7.39578
2.44	7.8878
2.434	8.30596
2.428	8.65955
2.422	8.98245
2.416	9.42441
2.41	9.70957
2.404	10.2257
2.398	10.7029
2.392	11.3711
2.386	12.1258
2.38	12.8198
2.374	13.4779
2.368	14.1188
2.362	14.8887
2.356	15.5312
2.35	16.1964
2.344	16.802
2.338	17.2473
2.332	17.6366
2.326	17.8974
2.32	18.1074
2.314	18.4241
2.308	18.7425
2.302	19.0314
2.296	19.1872
2.29	19.2808
2.284	19.2511
2.278	19.0099
2.272	18.7529
2.266	18.293
2.26	17.6349
2.254	16.7561
2.248	15.9677
2.242	15.5586
2.236	15.4369
2.23	15.3863
2.224	15.3692
2.218	15.026
2.212	14.692
2.206	14.0681
2.2	13.414
2.194	12.635
2.188	11.6217
2.182	10.8667
2.176	10.3834
2.17	10.2133
2.164	10.3165
2.158	10.7337
2.152	11.2872
2.146	11.6981
2.14	11.7734
2.134	11.4815
2.128	10.9267
2.122	10.7063
2.116	10.9817
2.11	11.6282
2.104	12.173
2.098	12.5823
2.092	12.9644
2.086	13.2905
2.08	13.509
2.074	13.6687
2.068	13.9019
2.062	14.1279
2.056	14.3294
2.05	14.3572
2.044	14.3761
2.038	14.35
2.032	14.3603
2.026	14.1907
2.02	14.0676
2.014	13.7446
2.008	13.2682
2.002	12.5111
1.996	11.6134
1.99	10.5436
1.984	9.61967
1.978	9.01899
1.972	8.37505
1.966	7.57827
1.96	6.69586
1.954	6.09149
1.948	6.46809
1.942	7.74932
1.936	9.61823
1.93	11.8282
1.924	14.0675
1.918	16.4169
1.912	18.9094
1.906	21.3293
1.9	23.931
1.894	26.2559
1.888	28.3798
1.882	30.1767
1.876	31.7879
1.87	33.2396
1.864	34.4643
1.858	35.4034
1.852	36.1261
1.846	36.6513
1.84	37.1044
1.834	37.4335
1.828	37.6433
1.822	37.7345
1.816	37.7559
1.81	37.6628
1.804	37.5361
1.798	37.3056
1.792	36.9813
1.786	36.7097
1.78	36.5349
1.774	36.4583
1.768	36.5559
1.762	36.6683
1.756	36.7629
1.75	36.9037
1.744	37.0548
1.738	37.1913
1.732	37.2748
1.726	37.4171
1.72	37.4963
1.714	37.6785
1.708	37.706
1.702	37.795
1.696	37.9393
1.69	37.9421
1.684	38.0509
1.678	38.1093
1.672	38.2488
1.666	38.3361
1.66	38.4641
1.654	38.6464
1.648	38.858
1.642	39.0302
1.636	39.1773
1.63	39.452
1.624	39.6169
1.618	39.8102
1.612	40.0881
1.606	40.4236
1.6	40.6912
1.594	40.9274
1.588	41.1665
1.582	41.2633
1.576	41.3694
1.57	41.3749
1.564	41.3057
1.558	41.0978
1.552	40.7656
1.546	40.3523
1.54	39.9222
1.534	39.6241
1.528	39.335
1.522	39.0352
1.516	38.426
1.51	37.7289
1.504	37.0577
1.498	36.511
1.492	35.9132
1.486	35.2137
1.48	34.3699
1.474	33.493
1.468	33.0043
1.462	33.0674
1.456	33.8427
1.45	34.8545
1.444	35.287
1.438	34.0208
1.432	32.5071
1.426	34.0087
1.42	38.95
1.414	44.2183
1.408	49.2249
1.402	53.8187
1.396	56.8558
1.39	60.5076
1.384	62.8453
1.378	64.3568
1.372	65.4264
1.366	66.1663
1.36	66.6693
1.354	67.0828
1.348	67.5042
1.342	68.3486
1.336	69.3401
1.33	70.5601
1.324	71.7704
1.318	72.9014
1.312	73.9378
1.306	74.8131
1.3	75.4987
1.294	75.9305
1.288	76.1859
1.282	76.3652
1.276	76.3479
1.27	76.167
1.264	76.1363
1.258	75.9201
1.252	75.6978
1.246	75.6661
1.24	75.7466
1.234	75.7029
1.228	75.6944
1.222	76.0317
1.216	76.1939
1.21	76.3976
1.204	76.5766
1.198	76.9123
1.192	77.2811
1.186	78.0021
1.18	78.9755
1.174	80.2093
1.168	81.5405
1.162	82.9078
1.156	84.0822
1.15	84.9254
1.144	85.6631
1.138	86.2212
1.132	86.57
1.126	86.8183
1.12	86.9665
1.114	87.1021
1.108	87.2909
1.102	87.425
1.096	87.5596
1.09	87.71
1.084	87.803
1.078	87.8681
1.072	87.912
1.066	87.8357
1.06	87.7647
1.054	87.5441
1.048	87.2827
1.042	86.9302
1.036	86.6562
1.03	86.2547
1.024	85.7845
1.018	85.4001
1.012	85.0026
1.006	84.6988
1	84.4194
0.994	84.1103
0.988	83.5267
0.982	82.7178
0.976	82.43
0.97	83.6258
0.964	85.2763
0.958	86.5714
0.952	87.5152
0.946	88.0384
0.94	88.4202
0.934	88.6924
0.928	88.9011
0.922	89.2081
0.916	89.3039
0.91	89.4137
0.904	89.4496
0.898	89.5038
0.892	89.5514
0.886	89.6727
0.88	89.7786
0.874	89.7921
0.868	89.8054
0.862	90.0197
0.856	90.2373
0.85	90.3348
0.844	90.3767
0.838	90.4073
0.832	90.4496
0.826	90.4679
0.82	90.4619
0.814	90.4572
0.808	90.4268
0.802	90.4261
0.796	90.2759
0.79	90.2268
0.784	90.2356
0.778	90.1927
0.772	90.0869
0.766	90.0319
0.76	90.0053
0.754	89.9747
0.748	89.9637
0.742	90.124
0.736	90.2417
0.73	90.3815
0.724	90.3897
0.718	90.4084
0.712	90.4515
0.706	90.4663
0.7	90.4484
0.694	90.4373
0.688	90.4492
0.682	90.4628
0.676	90.4475
0.67	90.4498
0.664	90.4508
0.658	90.4361
0.652	90.4364
0.646	90.4738
0.64	90.4747
0.634	90.4436
0.628	90.4399
0.622	90.4174
0.616	90.4053
0.61	90.3989
0.604	90.3973
0.598	90.4058
0.592	90.4371
0.586	90.4075
0.58	90.3683
0.574	90.3356
0.568	90.2808
0.562	90.225
0.556	90.1769
0.55	90.0977
0.544	90.0137
0.538	89.8751
0.532	89.7664
0.526	89.6227
0.52	89.4964
0.514	89.336
0.508	89.1277
0.502	88.8848
0.496	88.6883
0.49	88.456
0.484	88.1728
0.478	87.933
0.472	87.6882
0.466	87.4269
0.46	87.1679
0.454	86.9166
0.448	86.6747
0.442	86.4386
0.436	86.1702
0.43	85.9525
0.424	85.7125
0.418	85.473
0.412	85.2301
0.406	84.972
0.4	84.715
