Name: Flat Black Paint
Type: Manmade materials
Class: General Construction Materials
Subclass: Paints
Particle Size: Solid
Sample No.: DM725
Owner: JPL
Origin: Design Master, P.O. Box 601, Boulder, CO 80306
Description: Flat black spray paint
Measurement: Hemispherical reflectance
X Units: Wavelength (micrometers)
Y Units: Reflectance (percent)
wavelength	value
14.0131	24.7156
13.7895	24.3035
13.5729	23.3714
13.363	18.713
13.1595	22.1319
12.9621	25.4337
12.7705	24.1569
12.5845	22.1783
12.4039	18.9676
12.2284	12.6604
12.0578	9.68221
11.8918	8.6438
11.7304	8.2671
11.5733	9.06263
11.4203	12.0293
11.2714	14.031
11.1263	14.2685
10.9848	14.0226
10.8469	13.5956
10.7125	14.457
10.5813	13.8309
10.4533	14.28
10.3284	13.2081
10.2064	12.1369
10.0872	10.95
9.97084	11.0641
9.8571	11.4826
9.74592	9.07725
9.63724	7.80247
9.53094	7.46069
9.42697	7.15144
9.32524	6.72814
9.22568	5.99473
9.12823	6.32712
9.03281	6.6418
8.93937	6.47155
8.84784	6.73123
8.75816	6.80461
8.67029	6.08776
8.58416	5.43068
8.49973	7.27411
8.41693	7.06074
8.33574	7.57307
8.2561	8.1141
8.17797	7.90725
8.10131	7.79621
8.02606	7.68286
7.9522	7.74279
7.87969	7.84599
7.80849	7.06817
7.73856	4.03102
7.66987	6.77749
7.60239	8.19701
7.5361	8.54293
7.47094	8.72184
7.4069	8.74447
7.34396	8.90365
7.28207	7.84258
7.22122	7.6447
7.16137	8.90377
7.10251	10.4263
7.04461	9.96155
6.98765	9.63388
6.9316	9.4318
6.87644	8.15075
6.82215	7.74221
6.76871	9.67066
6.71611	11.5594
6.66431	12.2269
6.61331	12.3692
6.56308	12.276
6.51361	11.853
6.46488	12.0864
6.41687	12.3078
6.36957	12.0407
6.32297	11.6775
6.27704	11.576
6.23177	11.2512
6.18715	10.7756
6.14317	8.88313
6.0998	7.61733
6.05705	6.7342
6.01489	5.53392
5.97331	4.32908
5.9323	7.44177
5.89186	8.94207
5.85196	7.43323
5.81259	6.15914
5.77376	5.65928
5.73543	4.96265
5.69762	4.48897
5.6603	7.54879
5.62347	10.168
5.5871	10.7561
5.55121	10.997
5.51578	11.1648
5.4808	11.0397
5.44625	11.1947
5.41214	11.2135
5.37846	11.1549
5.34519	11.0094
5.31233	11.0847
5.27987	11.0356
5.24781	10.8827
5.21613	10.8059
5.18483	10.7838
5.15391	10.7501
5.12335	10.6656
5.09316	10.5827
5.06331	10.528
5.03382	10.408
5.00467	10.4616
4.97585	10.2886
4.94736	10.2171
4.9192	10.1023
4.89135	10.1585
4.86382	10.0329
4.8366	10.0606
4.80968	9.94452
4.78306	9.96639
4.75673	9.79627
4.73069	9.765
4.70493	9.69773
4.67945	9.68173
4.65425	9.58947
4.62932	9.50779
4.60465	9.48812
4.58024	9.42639
4.55609	9.39213
4.5322	9.40511
4.50855	9.32284
4.48515	9.34749
4.46199	9.08229
4.43907	9.2051
4.41638	9.055
4.39393	9.09746
4.3717	8.98832
4.34969	8.88561
4.32791	8.94441
4.30634	8.87347
4.28499	8.85223
4.26384	8.75027
4.24291	8.83765
4.22218	8.71955
4.20165	8.66741
4.18132	8.60305
4.16118	8.60102
4.14124	8.54358
4.12149	8.68062
4.10192	8.47936
4.08255	8.44306
4.06335	8.4234
4.04433	8.33933
4.02549	8.24295
4.00683	8.13409
3.98833	8.219
3.97001	8.22007
3.95186	8.08112
3.93386	8.06917
3.91604	7.86144
3.89837	8.05266
3.88086	7.96108
3.86351	7.84517
3.84631	7.93279
3.82927	7.84819
3.81238	7.65737
3.79563	7.9112
3.77903	7.70555
3.76258	7.7684
3.74627	7.73244
3.7301	7.76711
3.71406	7.668
3.69817	7.66621
3.68241	7.70472
3.66678	7.50819
3.65129	7.66608
3.63593	7.56486
3.62069	7.4482
3.60559	7.50931
3.59061	7.34578
3.57575	7.51632
3.56101	7.37173
3.5464	7.21287
3.5319	7.37846
3.51753	6.77147
3.50327	6.33187
3.48912	6.32787
3.47509	6.42755
3.46117	6.4222
3.44736	6.37833
3.43367	6.09072
3.42007	5.75823
3.40659	5.63919
3.39322	5.66109
3.37994	5.74726
3.36678	5.64001
3.35371	5.52826
3.34074	6.07112
3.32788	6.35032
3.31511	6.57384
3.30244	6.58018
3.28987	6.70271
3.27739	6.77815
3.26501	6.80964
3.25272	6.76201
3.24052	6.89308
3.22841	6.66688
3.2164	6.82362
3.20447	6.87251
3.19263	6.65305
3.18088	6.62749
3.16921	6.7774
3.15763	6.72442
3.14614	6.69222
3.13472	6.78086
3.12339	6.63449
3.11214	6.61836
3.10098	6.61362
3.08989	6.73184
3.07888	6.64983
3.06795	6.62385
3.0571	6.60744
3.04632	6.58211
3.03562	6.5496
3.02499	6.55531
3.01444	6.4407
3.00396	6.43001
2.99355	6.19848
2.98322	6.34166
2.97295	6.31474
2.96276	6.34952
2.95264	6.18854
2.94258	6.28995
2.9326	6.24828
2.92268	6.13825
2.91283	6.19758
2.90304	6.19764
2.89332	6.14831
2.88367	6.07737
2.87408	6.05877
2.86455	5.96231
2.85508	5.92429
2.84568	6.22892
2.83634	6.31211
2.82706	5.93845
2.81784	6.15705
2.80869	6.24455
2.79959	6.04139
2.79055	6.15171
2.78156	6.0429
2.77264	6.07189
2.76377	6.18913
2.75496	6.31015
2.7462	6.17891
2.7375	5.99388
2.72886	6.35869
2.72027	6.0647
2.71173	6.39848
2.70325	6.13364
2.69482	6.18576
2.68644	6.17643
2.67812	6.14751
2.66984	6.16152
2.66162	6.06018
2.65345	6.0828
2.64532	6.08792
2.63725	6.10671
2.62923	6.05977
2.62125	6.02817
2.61332	6.06826
2.60544	6.01579
2.59761	5.98131
2.58983	6.19038
2.58209	5.96631
2.5744	6.04999
2.56675	5.9242
2.55915	5.97057
2.55159	6.23276
2.54408	6.03319
2.53661	5.98726
2.52919	5.93823
2.52181	6.02998
2.51447	5.83791
2.50717	5.99898
2.49992	5.89228
2.49271	5.80387
2.48554	5.81949
2.47841	5.91045
2.47132	5.96429
2.46427	6.03512
2.45727	5.87603
2.4503	5.68876
2.44337	5.8847
2.43648	5.72613
2.42963	5.74005
2.42282	5.72964
2.41605	5.84946
2.40931	5.94715
2.40261	5.77375
2.39595	5.91693
2.38932	5.92271
2.38274	5.7898
2.37618	5.65122
2.36967	5.77783
2.36319	5.85105
2.35674	5.97626
2.35033	5.83847
2.34396	5.77902
2.33762	5.75282
2.33131	5.66063
2.32504	5.64908
2.3188	5.54378
2.31259	5.65097
2.30642	5.73315
2.30028	5.64668
2.29417	5.6283
2.2881	5.43177
2.28206	5.67119
2.27605	5.64903
2.27007	5.54467
2.26412	5.68541
2.2582	5.73288
2.25232	5.48591
2.24646	5.88282
2.24064	5.73482
2.23484	5.76167
2.22908	5.63008
2.22334	5.85467
2.21764	5.57309
2.21196	5.64451
2.20631	5.66641
2.20069	5.70551
2.1951	5.66165
2.18954	5.73318
2.18401	5.48595
2.1785	5.75111
2.17302	5.93854
2.16757	5.49952
2.16215	5.56505
2.15675	5.42042
2.15138	5.57443
2.14604	5.27728
2.14072	5.58574
2.13543	5.57485
2.13017	5.64281
2.12493	5.72211
2.11972	5.54767
2.11453	5.46695
2.10937	5.56833
2.10423	5.68104
2.09912	5.89743
2.09404	5.50769
2.08897	5.30561
2.08394	5.97793
2.07892	5.37752
2.07393	5.69316
2.06897	5.45972
2.06403	5.75458
2.05911	5.26427
2.05421	5.46856
2.04934	5.73829
2.04449	5.54671
2.03967	5.08616
2.03486	5.37942
2.03008	5.42985
2.02533	5.62814
2.02059	5.59035
2.01588	5.68938
2.01118	5.42984
2.00651	5.54843
2.00187	5.3529
