Name: Fluorite CaF_2
Type: Mineral
Class: Halides
Particle Size: 45-125um
Sample No.: H-2B
Owner: JPL
Wavelength Range: VNIR-SWIR
Origin: United Kingdom, England, Durham County, Weardal
Measurement: Hemispherical reflectance
X Units: Wavelength (micrometers)
Y Units: Reflectance (percent)
wavelength	value
0.4	64.47
0.403	64.58
0.406	64.68
0.409	64.92
0.412	64.95
0.415	65
0.418	65.02
0.421	65.03
0.424	65.15
0.427	65.29
0.43	65.47
0.433	65.5
0.436	65.69
0.439	65.89
0.442	65.91
0.445	66.01
0.448	66.07
0.451	66.14
0.454	66.26
0.457	66.25
0.46	66.38
0.463	66.37
0.466	66.53
0.469	66.69
0.472	66.67
0.475	66.74
0.478	66.71
0.481	66.85
0.484	66.87
0.487	66.69
0.49	66.8
0.493	66.76
0.496	66.74
0.499	66.88
0.502	66.99
0.505	66.9
0.508	66.96
0.511	67.08
0.514	67.05
0.517	67.13
0.52	67.2
0.523	67.19
0.526	67.28
0.529	67.26
0.532	67.31
0.535	67.36
0.538	67.33
0.541	67.42
0.544	67.38
0.547	67.41
0.55	67.53
0.553	67.52
0.556	67.61
0.559	67.49
0.562	67.89
0.565	67.87
0.568	67.82
0.571	67.74
0.574	67.69
0.577	67.7
0.58	67.84
0.583	67.7
0.586	67.78
0.589	67.81
0.592	67.89
0.595	67.99
0.598	67.87
0.601	68.03
0.604	68.08
0.607	68.19
0.61	68.12
0.613	68.22
0.616	68.22
0.619	68.29
0.622	68.35
0.625	68.3
0.628	68.46
0.631	68.47
0.634	68.61
0.637	68.62
0.64	68.66
0.643	68.86
0.646	68.92
0.649	68.89
0.652	69
0.655	69.1
0.658	69.21
0.661	69.12
0.664	69.34
0.667	69.42
0.67	69.43
0.673	69.53
0.676	69.44
0.679	69.44
0.682	69.53
0.685	69.53
0.688	69.64
0.691	69.5
0.694	69.64
0.697	69.77
0.7	69.67
0.703	69.82
0.706	69.91
0.709	69.95
0.712	69.96
0.715	69.85
0.718	70.05
0.721	70.01
0.724	70.04
0.727	70.07
0.73	70.02
0.733	70.11
0.736	70.24
0.739	70.05
0.742	70.14
0.745	70.14
0.748	70.21
0.751	70.28
0.754	70.25
0.757	70.33
0.76	70.24
0.763	70.33
0.766	70.37
0.769	70.37
0.772	70.31
0.775	70.24
0.778	70.42
0.781	70.46
0.784	70.45
0.787	70.36
0.79	70.43
0.793	70.53
0.796	70.53
0.799	70.56
0.808	70.95
0.82	71.07
0.832	70.95
0.844	71.07
0.856	71.09
0.868	71.19
0.88	71.07
0.892	71.13
0.904	71.07
0.916	71.12
0.928	71.12
0.94	71.06
0.952	71.13
0.964	71.22
0.976	71.25
0.988	71.22
1	71.12
1.012	71.04
1.024	71.15
1.036	71.16
1.048	71.23
1.06	71.16
1.072	71.16
1.084	71.15
1.096	71.15
1.108	71.28
1.12	71.31
1.132	71.3
1.144	71.13
1.156	71.12
1.168	71.02
1.18	71.19
1.192	71.11
1.204	71.11
1.216	71.06
1.228	71.04
1.24	71.02
1.252	71.09
1.264	71.11
1.276	71.03
1.288	71
1.3	70.88
1.312	70.85
1.324	70.85
1.336	70.77
1.348	70.8
1.36	70.84
1.372	70.8
1.384	70.69
1.396	70.42
1.408	70.21
1.42	70.05
1.432	70.02
1.444	70.12
1.456	70.05
1.468	70.26
1.48	70.25
1.492	70.41
1.504	70.54
1.516	70.63
1.528	70.8
1.54	70.8
1.552	70.87
1.564	70.92
1.576	70.92
1.588	70.89
1.6	70.95
1.612	70.96
1.624	70.98
1.636	71.04
1.648	71.08
1.66	71.13
1.672	71.17
1.684	71.19
1.696	71.27
1.708	71.3
1.72	71.2
1.732	71.14
1.744	71.04
1.756	71.08
1.768	71.07
1.78	71.06
1.792	71.05
1.804	70.98
1.816	70.93
1.828	70.98
1.84	70.82
1.852	70.81
1.864	70.56
1.876	70.24
1.888	69.39
1.9	68.32
1.912	67.55
1.924	67.17
1.936	67.14
1.948	67.38
1.96	67.74
1.972	68.13
1.984	68.61
1.996	69.12
2.008	69.59
2.02	70.03
2.032	70.25
2.044	70.45
2.056	70.54
2.068	70.64
2.08	70.86
2.092	70.96
2.104	71.12
2.116	71.4
2.128	71.44
2.14	71.34
2.152	71.19
2.164	71.13
2.176	71.02
2.188	71.05
2.2	70.99
2.212	70.86
2.224	70.95
2.236	71.07
2.248	71.07
2.26	71.06
2.272	71.07
2.284	71.09
2.296	71.08
2.308	71.07
2.32	71.1
2.332	71.19
2.344	71.02
2.356	70.88
2.368	70.87
2.38	70.72
2.392	70.51
2.404	70.44
2.416	70.37
2.428	70.19
2.44	69.94
2.452	69.73
2.464	69.55
2.476	69.38
2.488	69.61
2.5	69.84
