Name: Kaolinite Al_2Si_2O_5(OH)_4
Type: Mineral
Class: Silicates
Subclass: Phyllosilicates
Particle Size: 0-45um
Sample No.: PS-1B
Owner: JPL
Wavelength Range: VNIR-SWIR
Origin: USA, Georgia, Warren County
Description: Disordered kaolinite.
Measurement: Hemispherical reflectance
X Units: Wavelength (micrometers)
Y Units: Reflectance (percent)
wavelength	value
0.4	58.27
0.403	58.75
0.406	59.64
0.409	60.29
0.412	60.79
0.415	61.32
0.418	62.05
0.421	62.8
0.424	63.39
0.427	64.11
0.43	64.74
0.433	65.6
0.436	66.3
0.439	67.15
0.442	67.84
0.445	68.34
0.448	68.71
0.451	69.14
0.454	69.57
0.457	70.03
0.46	70.19
0.463	70.5
0.466	70.87
0.469	71.18
0.472	71.44
0.475	71.88
0.478	72.18
0.481	72.57
0.484	72.78
0.487	73.26
0.49	73.72
0.493	74.13
0.496	74.68
0.499	75.19
0.502	75.65
0.505	76.26
0.508	76.84
0.511	77.39
0.514	77.91
0.517	78.51
0.52	78.97
0.523	79.58
0.526	80.17
0.529	80.46
0.532	81.01
0.535	81.38
0.538	82.07
0.541	82.51
0.544	82.86
0.547	83.27
0.55	83.5
0.553	84.09
0.556	84.47
0.559	84.54
0.562	85.37
0.565	85.55
0.568	85.78
0.571	86.02
0.574	86.11
0.577	86.41
0.58	86.39
0.583	86.58
0.586	86.71
0.589	87.03
0.592	87.04
0.595	87.36
0.598	87.37
0.601	87.56
0.604	87.68
0.607	87.7
0.61	87.95
0.613	87.94
0.616	88
0.619	88.07
0.622	88.19
0.625	88.23
0.628	88.19
0.631	88.36
0.634	88.24
0.637	88.45
0.64	88.41
0.643	88.53
0.646	88.31
0.649	88.52
0.652	88.63
0.655	88.75
0.658	88.75
0.661	88.81
0.664	88.85
0.667	88.87
0.67	88.99
0.673	88.87
0.676	89.08
0.679	88.99
0.682	89.05
0.685	89.1
0.688	89.15
0.691	89.05
0.694	89.27
0.697	89.27
0.7	89.28
0.703	89.29
0.706	89.44
0.709	89.51
0.712	89.63
0.715	89.57
0.718	89.67
0.721	89.69
0.724	89.8
0.727	89.92
0.73	89.92
0.733	89.75
0.736	89.92
0.739	89.91
0.742	89.92
0.745	89.99
0.748	90.14
0.751	90.11
0.754	90.1
0.757	90.2
0.76	90.22
0.763	90.1
0.766	90.15
0.769	90.32
0.772	90.32
0.775	90.37
0.778	90.33
0.781	90.38
0.784	90.38
0.787	90.5
0.79	90.56
0.793	90.55
0.796	90.49
0.799	90.57
0.808	90.79
0.82	90.73
0.832	90.8
0.844	91.02
0.856	91.13
0.868	91.13
0.88	91.01
0.892	91.02
0.904	90.84
0.916	90.77
0.928	90.71
0.94	90.53
0.952	90.47
0.964	90.25
0.976	91.07
0.988	91.37
1	91.49
1.012	91.6
1.024	91.73
1.036	92.02
1.048	92.02
1.06	92.03
1.072	92.22
1.084	92.37
1.096	92.37
1.108	92.55
1.12	92.7
1.132	92.88
1.144	92.86
1.156	92.85
1.168	92.83
1.18	92.81
1.192	92.67
1.204	92.59
1.216	92.36
1.228	91.78
1.24	91.68
1.252	91.93
1.264	92.07
1.276	91.72
1.288	90.53
1.3	89.36
1.312	88.78
1.324	88.15
1.336	87.86
1.348	85.91
1.36	84.68
1.372	81.94
1.384	75.39
1.396	74.23
1.408	70.42
1.42	82.64
1.432	87.5
1.444	88.72
1.456	89.43
1.468	89.93
1.48	90.21
1.492	90.15
1.504	90.86
1.516	91.11
1.528	91.15
1.54	91.27
1.552	91.27
1.564	91.22
1.576	91.32
1.588	91.32
1.6	91.44
1.612	91.49
1.624	91.4
1.636	91.38
1.648	91.3
1.66	91.16
1.672	91.09
1.684	91.07
1.696	90.88
1.708	90.8
1.72	90.53
1.732	90.18
1.744	89.84
1.756	89.49
1.768	89.13
1.78	88.4
1.792	87.94
1.804	87.68
1.816	87.33
1.828	87.25
1.84	87.01
1.852	87.53
1.864	86.94
1.876	85.04
1.888	83.47
1.9	81.97
1.912	80.91
1.924	80.95
1.936	81.08
1.948	81.35
1.96	81.67
1.972	81.99
1.984	82.31
1.996	82.5
2.008	82.44
2.02	82.39
2.032	82.14
2.044	81.63
2.056	80.95
2.068	80.02
2.08	78.94
2.092	77.88
2.104	76.6
2.116	75.19
2.128	72.93
2.14	67.3
2.152	60.82
2.164	57.91
2.176	57.27
2.188	55.22
2.2	51.98
2.212	56.21
2.224	64.12
2.236	66.78
2.248	67.07
2.26	66.51
2.272	65.29
2.284	63.78
2.296	61.8
2.308	59.91
2.32	59.11
2.332	58.66
2.344	57.38
2.356	55.91
2.368	54.67
2.38	53.64
2.392	54.04
2.404	54.59
2.416	53.87
2.428	52.14
2.44	50.31
2.452	48.83
2.464	47.53
2.476	46.35
2.488	45.4
2.5	44.53
