Name: Vermiculite (Mg,Fe^2+,Al)_3(Al,Si)_4O_10(OH)_2.4H_2O
Type: Mineral
Class: Silicates
Subclass: Phyllosilicates
Particle Size: 0-45um
Sample No.: PS-18B
Owner: JPL
Origin: USA, Montana, Lincoln County, Libby.
Measurement: Hemispherical reflectance
X Units: Wavelength (micrometers)
Y Units: Reflectance (percent)
wavelength	value
2.5	45.0968
2.494	45.3442
2.488	45.7029
2.482	46.2242
2.476	46.4784
2.47	46.6973
2.464	47.2978
2.458	47.6243
2.452	48.0434
2.446	48.4738
2.44	48.7627
2.434	49.1187
2.428	49.4744
2.422	49.8127
2.416	50.1183
2.41	50.4006
2.404	50.4766
2.398	50.7198
2.392	50.8771
2.386	51.1825
2.38	51.611
2.374	52.2529
2.368	52.8604
2.362	53.446
2.356	53.844
2.35	54.2176
2.344	54.2704
2.338	54.0098
2.332	53.5862
2.326	53.1844
2.32	52.9357
2.314	52.8731
2.308	53.0016
2.302	53.12
2.296	53.5952
2.29	54.4555
2.284	55.9494
2.278	57.493
2.272	58.8173
2.266	59.8312
2.26	60.5149
2.254	60.9733
2.248	61.3924
2.242	61.7401
2.236	62.1055
2.23	62.236
2.224	62.4655
2.218	62.6069
2.212	62.7658
2.206	63.0295
2.2	63.1386
2.194	63.1617
2.188	63.1918
2.182	63.4476
2.176	63.4016
2.17	63.5164
2.164	63.5892
2.158	63.6824
2.152	63.6806
2.146	63.5824
2.14	63.5333
2.134	63.3163
2.128	63.1039
2.122	62.8037
2.116	62.5022
2.11	62.1733
2.104	61.8602
2.098	61.5548
2.092	61.4058
2.086	61.3155
2.08	61.1427
2.074	60.9813
2.068	60.8589
2.062	60.6401
2.056	60.4463
2.05	60.1288
2.044	59.9649
2.038	59.638
2.032	59.339
2.026	58.9128
2.02	58.4521
2.014	57.8949
2.008	57.4912
2.002	56.9659
1.996	56.2049
1.99	55.5633
1.984	54.8548
1.978	54.2473
1.972	53.6528
1.966	53.1371
1.96	52.6965
1.954	52.09
1.948	51.6092
1.942	51.0738
1.936	50.3842
1.93	49.7708
1.924	49.0897
1.918	48.5713
1.912	48.8627
1.906	50.2593
1.9	53.2454
1.894	56.6721
1.888	59.5671
1.882	61.6071
1.876	62.9039
1.87	64.0274
1.864	64.6778
1.858	65.0114
1.852	65.3159
1.846	65.4828
1.84	65.4733
1.834	65.5764
1.828	65.5144
1.822	65.4702
1.816	65.4359
1.81	65.4492
1.804	65.3969
1.798	65.3341
1.792	65.2612
1.786	65.2455
1.78	65.2663
1.774	65.2422
1.768	65.2582
1.762	65.2047
1.756	65.2395
1.75	65.2414
1.744	65.2904
1.738	65.261
1.732	65.2804
1.726	65.2594
1.72	65.3079
1.714	65.2544
1.708	65.1806
1.702	65.1329
1.696	65.0371
1.69	64.9581
1.684	64.9657
1.678	64.9484
1.672	64.753
1.666	64.7605
1.66	64.6719
1.654	64.5169
1.648	64.4068
1.642	64.4143
1.636	64.2543
1.63	64.2658
1.624	64.0518
1.618	63.9767
1.612	63.8552
1.606	63.8493
1.6	63.7031
1.594	63.6094
1.588	63.4773
1.582	63.2621
1.576	63.1711
1.57	63.0548
1.564	62.9046
1.558	62.7559
1.552	62.6107
1.546	62.3372
1.54	62.2081
1.534	62.0398
1.528	61.7489
1.522	61.4918
1.516	61.3563
1.51	61.071
1.504	60.7923
1.498	60.5553
1.492	60.2355
1.486	59.8831
1.48	59.551
1.474	59.227
1.468	58.8411
1.462	58.6757
1.456	58.4194
1.45	58.101
1.444	57.7464
1.438	57.4901
1.432	57.2465
1.426	57.0308
1.42	56.8347
1.414	56.8255
1.408	57.3476
1.402	57.915
1.396	57.6662
1.39	58.0133
1.384	58.9529
1.378	58.7132
1.372	59.0844
1.366	59.4528
1.36	59.2842
1.354	59.1197
1.348	58.9906
1.342	58.9795
1.336	58.7994
1.33	58.706
1.324	58.5402
1.318	58.3013
1.312	58.1575
1.306	57.9866
1.3	57.7501
1.294	57.6094
1.288	57.3525
1.282	57.1984
1.276	56.9892
1.27	56.8051
1.264	56.6409
1.258	56.4471
1.252	56.2199
1.246	56.0596
1.24	55.8781
1.234	55.6416
1.228	55.4675
1.222	55.2298
1.216	55.0635
1.21	54.8659
1.204	54.7115
1.198	54.5503
1.192	54.3553
1.186	54.2586
1.18	54.0615
1.174	53.9675
1.168	53.8206
1.162	53.7119
1.156	53.5602
1.15	53.4794
1.144	53.4008
1.138	53.3355
1.132	53.233
1.126	53.1215
1.12	53.01
1.114	52.9757
1.108	52.909
1.102	52.7585
1.096	52.6749
1.09	52.6548
1.084	52.4918
1.078	52.5307
1.072	52.4348
1.066	52.3999
1.06	52.4091
1.054	52.2537
1.048	52.1242
1.042	52.0665
1.036	52.1187
1.03	52.0621
1.024	51.9903
1.018	51.8434
1.012	51.8929
1.006	51.7278
1	51.6153
0.994	51.6007
0.988	51.4693
0.982	51.412
0.976	51.2986
0.97	51.1558
0.964	51.1335
0.958	51.0135
0.952	50.9255
0.946	50.8254
0.94	50.8257
0.934	50.7274
0.928	50.7043
0.922	50.6783
0.916	50.5791
0.91	50.5328
0.904	50.5446
0.898	50.6029
0.892	50.5942
0.886	50.5763
0.88	50.4828
0.874	50.5703
0.868	50.5462
0.862	50.4989
0.856	50.8436
0.85	50.7629
0.844	50.7898
0.838	50.703
0.832	50.7083
0.826	50.6515
0.82	50.5643
0.814	50.4615
0.808	50.294
0.802	50.1361
0.796	49.902
0.79	49.665
0.784	49.4019
0.778	49.1315
0.772	48.847
0.766	48.5449
0.76	48.2632
0.754	47.9598
0.748	47.6829
0.742	47.4207
0.736	47.1542
0.73	46.9154
0.724	46.6897
0.718	46.4959
0.712	46.2911
0.706	46.1251
0.7	45.9641
0.694	45.8329
0.688	45.7123
0.682	45.6133
0.676	45.4533
0.67	45.2578
0.664	45.058
0.658	44.8332
0.652	44.5986
0.646	44.332
0.64	44.0459
0.634	43.7392
0.628	43.4197
0.622	43.0729
0.616	42.7092
0.61	42.3466
0.604	41.9521
0.598	41.5646
0.592	41.1621
0.586	40.7313
0.58	40.3006
0.574	39.8389
0.568	39.3644
0.562	38.8299
0.556	38.2209
0.55	37.5694
0.544	36.8936
0.538	36.1302
0.532	35.2259
0.526	34.2435
0.52	33.106
0.514	31.8977
0.508	30.5468
0.502	29.1704
0.496	27.822
0.49	26.6524
0.484	25.6476
0.478	24.9202
0.472	24.4045
0.466	24.0328
0.46	23.6639
0.454	23.0349
0.448	22.0667
0.442	20.8987
0.436	19.6008
0.43	18.2868
0.424	17.0831
0.418	16.1588
0.412	15.4638
0.406	14.878
0.4	14.291
