Name: Syenite
Type: Rock
Class: Igneous
Subclass: Alkalic
Particle Size: Solid surface
Sample No.: Ward18.txt
Owner: JPL
Origin: Ward's Collection of American Rocks.  Sample locality - Golden Cycle Mine, near Victor, Teller County, Colorado.
Description: A gray, medium-grained rock spotted with black prismatic
Measurement: Hemispherical reflectance
X Units: Wavelength (micrometers)
Y Units: Reflectance (percent)
wavelength	value
15.3871	5.66892
15.118	4.9051
14.8581	4.97983
14.6069	5.75152
14.3642	6.14906
14.1293	6.73133
13.9021	7.15244
13.682	6.76323
13.4687	6.18954
13.2621	5.80008
13.0616	5.06893
12.8672	5.36757
12.6784	5.58876
12.4951	5.31075
12.317	6.25809
12.1439	6.66376
11.9757	7.9288
11.812	8.87275
11.6527	9.72461
11.4977	10.5702
11.3468	11.4073
11.1997	12.0818
11.0564	12.5268
10.9168	13.6848
10.7806	14.5221
10.6478	16.095
10.5182	17.5693
10.3917	19.4708
10.2683	22.6494
10.1477	24.3678
10.0299	26.3016
9.9148	28.1132
9.8024	28.5374
9.6925	29.0988
9.585	29.605
9.4798	27.8317
9.377	22.817
9.2763	20.6307
9.1778	18.711
9.0814	17.1514
8.987	16.2969
8.8945	14.9626
8.8039	14.7144
8.7151	13.5547
8.6281	12.7654
8.5428	12.079
8.4592	10.8322
8.3772	9.68458
8.2967	6.92251
8.2179	3.81148
8.1404	2.74089
8.0645	2.09534
7.9899	1.62932
7.9167	1.29637
7.8449	1.50977
7.7743	1.66025
7.705	1.55996
7.6369	1.57766
7.57	1.71669
7.5043	1.90654
7.4397	2.08491
7.3762	2.2477
7.3138	2.13753
7.2524	2.15914
7.1921	2.41457
7.1327	2.38412
7.0743	2.44116
7.0169	2.68917
6.9604	2.61785
6.9047	2.41456
6.85	2.97551
6.7962	2.76199
6.7431	3.024
6.6909	2.88181
6.6395	3.29427
6.5889	3.00159
6.539	3.13144
6.49	3.22363
6.4416	3.20383
6.3939	3.39302
6.347	3.40994
6.3007	3.45396
6.2551	3.43197
6.2101	3.7211
6.1658	3.44147
6.1222	3.38926
6.0791	3.24
6.0366	3.53249
5.9948	3.32112
5.9535	3.53117
5.9127	3.54141
5.8726	3.81211
5.8329	3.66438
5.7938	3.81222
5.7552	3.79047
5.7172	3.92787
5.6796	4.00127
5.6425	4.0295
5.6059	4.01826
5.5698	4.27082
5.5341	4.06296
5.4989	4.31324
5.4641	4.35466
5.4298	4.59164
5.3959	4.67042
5.3624	4.68588
5.3294	4.50925
5.2967	4.92695
5.2644	5.01117
5.2326	5.17448
5.2011	5.1092
5.17	5.33468
5.1392	5.25516
5.1088	5.28544
5.0788	5.72524
5.0491	5.644
5.0198	5.66051
4.9908	5.73927
4.9622	5.61976
4.9338	5.70939
4.9058	6.07581
4.8781	5.80403
4.8508	5.97722
4.8237	6.1383
4.7969	6.63701
4.7704	6.1378
4.7443	6.12852
4.7184	6.57682
4.6927	6.78217
4.6674	6.48966
4.6423	6.77063
4.6175	7.02374
4.593	7.45596
4.5687	7.42576
4.5447	7.72347
4.5209	8.13398
4.4974	8.46082
4.4741	8.55279
4.451	9.00347
4.4282	9.44045
4.4057	9.43086
4.3833	9.6124
4.3612	9.99566
4.3393	10.335
4.3176	10.4562
4.2962	10.6389
4.2749	11.2762
4.2539	11.4309
4.233	11.2916
4.2124	11.6999
4.192	11.8064
4.1717	12.1457
4.1517	12.4496
4.1319	12.279
4.1122	12.6536
4.0927	12.8364
4.0734	13.0992
4.0543	13.0314
4.0354	13.467
4.0166	13.3589
3.9981	13.5026
3.9796	13.4983
3.9614	13.2079
3.9433	13.7431
3.9254	13.6944
3.9077	14.0662
3.8901	14.3396
3.8726	13.7343
3.8554	14.2833
3.8382	14.5978
3.8213	13.9067
3.8045	13.889
3.7878	14.2527
3.7713	13.7806
3.7549	13.9024
3.7386	14.4947
3.7225	14.5116
3.7066	14.4413
3.6907	14.1261
3.675	14.4055
3.6595	14.1398
3.644	14.3331
3.6287	14.4048
3.6136	13.6434
3.5985	13.9439
3.5836	14.2413
3.5688	14.145
3.5541	13.2824
3.5396	13.8736
3.5251	13.2041
3.5108	12.7142
3.4966	12.6401
3.4825	12.6054
3.4685	12.7362
3.4547	12.3738
3.4409	12.4041
3.4273	11.0164
3.4137	11.4468
3.4003	10.9736
3.387	10.9979
3.3738	11.0312
3.3606	10.8057
3.3476	10.2234
3.3347	10.0008
3.3219	10.218
3.3092	9.38956
3.2965	10.0077
3.284	9.05606
3.2716	9.37057
3.2593	8.99124
3.247	8.84145
3.2348	9.07556
3.2228	8.47714
3.2108	7.96216
3.1989	8.57526
3.1871	8.59286
3.1754	8.02111
3.1638	8.3111
3.1523	7.89611
3.1408	7.64742
3.1294	6.73785
3.1181	7.19822
3.1069	7.05908
3.0958	6.0289
3.0848	6.40585
3.0738	6.03055
3.0629	7.0604
3.0521	6.2484
3.0413	6.51661
3.0307	6.11633
3.0201	5.80924
3.0096	7.17415
2.9991	6.87885
2.9887	5.45226
2.9784	5.81069
2.9682	6.79675
2.9581	5.8441
2.948	5.32762
2.9379	5.98672
2.928	5.97036
2.9181	5.28205
2.9083	6.28372
2.8985	5.38674
2.8888	6.08693
2.8792	6.29614
2.8697	5.19151
2.8602	5.26935
2.8507	6.42493
2.8413	5.81761
2.832	5.5418
2.8228	6.19444
2.8136	6.52019
2.8045	5.97964
2.7954	7.23977
2.7864	6.45128
2.7774	5.49799
2.7685	5.96798
2.7597	5.61084
2.7509	5.72223
2.7422	8.29396
2.7335	7.22985
2.7249	10.098
2.7163	9.9267
2.7078	10.1927
2.6994	10.8048
2.691	11.8034
2.6826	13.202
2.6743	13.9975
2.666	14.3287
2.6578	14.4506
2.6497	14.8232
2.6416	15.866
2.6336	14.9161
2.6256	15.8484
2.6176	14.88
2.6097	16.0509
2.6018	15.7535
2.594	14.7502
2.5863	16.0564
2.5785	15.1789
2.5709	15.5034
2.5633	15.2517
2.5557	14.6927
2.5481	14.2315
2.5406	13.9332
2.5332	15.2867
2.5258	15.5142
2.5184	13.1904
2.5111	15.8285
2.5038	14.7253
2.4966	15.1088
2.4894	15.2655
2.4823	15.6488
2.4752	15.0655
2.4681	15.0642
2.4611	15.0916
2.4541	15.415
2.4471	17.0218
2.4402	16.8066
2.4333	16.9009
2.4265	18.2691
2.4197	18.3606
2.413	18.2954
2.4063	19.2663
2.3996	18.5622
2.3929	19.7692
2.3863	18.3867
2.3798	20.0988
2.3732	20.0679
2.3667	19.4044
2.3603	20.2547
2.3538	20.6632
2.3474	18.0546
2.3411	19.6019
2.3347	20.3124
2.3285	18.8993
2.3222	19.3285
2.316	19.6453
2.3098	19.9696
2.3036	19.9946
2.2975	21.1816
2.2914	19.9301
2.2854	19.6433
2.2793	20.3287
2.2733	20.3923
2.2674	22.1301
2.2614	21.1321
2.2555	20.8479
2.2497	22.2778
2.2438	20.2701
2.238	18.301
2.2322	21.1549
2.2265	20.6339
2.2208	20.3334
2.2151	19.9537
2.2094	19.3352
2.2038	20.9192
2.1982	21.5458
2.1926	21.6389
2.187	18.933
2.1815	20.8163
2.176	22.1357
2.1706	22.1799
2.1651	20.4428
2.1597	21.5021
2.1543	23.9338
2.149	19.8419
2.1436	21.7539
2.1383	21.5236
2.1331	22.792
2.1278	21.1077
2.1226	22.0899
2.1174	22.709
2.1122	19.4252
2.1071	20.7361
2.1019	20.6725
2.0968	22.7183
2.0918	21.7516
2.0867	23.349
2.0817	20.4109
2.0767	20.949
2.0717	19.5721
2.0667	21.8394
2.0618	21.1293
2.0569	20.6117
2.052	23.1652
2.0472	19.7816
2.0423	21.3087
2.0375	23.0923
2.0327	20.2949
2.028	24.6479
2.0232	20.4199
2.0185	24.6473
2.0138	22.3793
2.0091	24.6568
2.0044	20.1871
1.9998	20.5058
