Name: Zircon ZrSiO_4
Type: Mineral
Class: Silicates
Subclass: Nesosilicates
Particle Size: 45-125um
Sample No.: NS-9A
Owner: JPL
Wavelength Range: VNIR-SWIR
Origin: Malawi, Southern Malawi, Blantyre-Limbe District
Measurement: Hemispherical reflectance
X Units: Wavelength (micrometers)
Y Units: Reflectance (percent)
wavelength	value
0.4	21.1
0.403	21.53
0.406	21.89
0.409	22.3
0.412	22.53
0.415	22.94
0.418	23.05
0.421	23.43
0.424	23.98
0.427	24.38
0.43	24.8
0.433	25.25
0.436	25.96
0.439	26.45
0.442	27.06
0.445	27.51
0.448	27.91
0.451	28.11
0.454	28.43
0.457	28.62
0.46	28.82
0.463	28.99
0.466	29.21
0.469	29.4
0.472	29.49
0.475	29.56
0.478	29.8
0.481	29.91
0.484	30.15
0.487	30.53
0.49	30.82
0.493	31.15
0.496	31.45
0.499	31.64
0.502	31.56
0.505	31.87
0.508	31.93
0.511	32.1
0.514	32.47
0.517	32.94
0.52	33.18
0.523	33.68
0.526	34.06
0.529	34.38
0.532	34.63
0.535	34.8
0.538	35.1
0.541	35.51
0.544	36.05
0.547	36.51
0.55	36.91
0.553	37.29
0.556	37.68
0.559	37.87
0.562	38.56
0.565	39
0.568	39.31
0.571	39.5
0.574	39.86
0.577	40.1
0.58	40.3
0.583	40.51
0.586	40.54
0.589	40.72
0.592	41.54
0.595	42.26
0.598	42.71
0.601	43.16
0.604	43.6
0.607	43.83
0.61	44.01
0.613	44.25
0.616	44.64
0.619	45.05
0.622	45.62
0.625	46.05
0.628	46.57
0.631	47
0.634	47.22
0.637	47.39
0.64	47.57
0.643	47.42
0.646	46.97
0.649	45.59
0.652	44.38
0.655	46.63
0.658	48.03
0.661	49.45
0.664	51.1
0.667	52.28
0.67	53.11
0.673	53.68
0.676	54.11
0.679	54.14
0.682	54.13
0.685	54.28
0.688	53.89
0.691	55.44
0.694	56.47
0.697	57.13
0.7	57.36
0.703	58.03
0.706	58.51
0.709	58.88
0.712	59.12
0.715	59.37
0.718	59.74
0.721	60.1
0.724	60.38
0.727	60.62
0.73	60.83
0.733	61.02
0.736	61.31
0.739	61.52
0.742	61.66
0.745	61.96
0.748	62.06
0.751	62.16
0.754	62.32
0.757	62.49
0.76	62.64
0.763	62.74
0.766	62.89
0.769	62.89
0.772	62.93
0.775	63.1
0.778	63.16
0.781	63.14
0.784	63.2
0.787	63.17
0.79	63.1
0.793	62.93
0.796	62.98
0.799	62.89
0.808	62.98
0.82	62.6
0.832	62.17
0.844	61.86
0.856	61.78
0.868	61.77
0.88	61.32
0.892	61.1
0.904	60.9
0.916	60.9
0.928	61.86
0.94	62.07
0.952	61.76
0.964	61.58
0.976	60.98
0.988	61.3
1	60.86
1.012	60.4
1.024	60
1.036	59
1.048	57.66
1.06	57.49
1.072	57.84
1.084	57.19
1.096	55.69
1.108	52.67
1.12	54.26
1.132	57.47
1.144	59.83
1.156	62.75
1.168	65.25
1.18	67.21
1.192	68.27
1.204	68.98
1.216	69.12
1.228	69.2
1.24	69.17
1.252	68.94
1.264	68.76
1.276	68.44
1.288	68.18
1.3	67.85
1.312	67.44
1.324	66.78
1.336	66.93
1.348	67.3
1.36	68.5
1.372	69.14
1.384	69.64
1.396	69.81
1.408	69.74
1.42	69.94
1.432	69.66
1.444	69.19
1.456	68.22
1.468	66.45
1.48	64.75
1.492	60.81
1.504	60.27
1.516	66.42
1.528	67.62
1.54	68.77
1.552	70.54
1.564	71.33
1.576	72.05
1.588	72.4
1.6	72.62
1.612	72.65
1.624	72.52
1.636	72.39
1.648	72.04
1.66	71.8
1.672	72.23
1.684	72.59
1.696	72.7
1.708	72.86
1.72	73.11
1.732	73.26
1.744	73.48
1.756	73.58
1.768	73.79
1.78	73.86
1.792	73.86
1.804	73.94
1.816	74.01
1.828	73.96
1.84	73.93
1.852	73.85
1.864	73.9
1.876	73.59
1.888	73.19
1.9	72.7
1.912	72.33
1.924	72.2
1.936	72.06
1.948	72.22
1.96	72.18
1.972	72.19
1.984	72.16
1.996	72.14
2.008	72.11
2.02	71.73
2.032	71.17
2.044	70.48
2.056	69.5
2.068	69.04
2.08	69.6
2.092	70.35
2.104	71.19
2.116	71.69
2.128	71.89
2.14	71.81
2.152	71.59
2.164	71.52
2.176	71.43
2.188	71.13
2.2	71.15
2.212	71.31
2.224	71.59
2.236	71.54
2.248	71.5
2.26	71.56
2.272	71.59
2.284	71.72
2.296	71.67
2.308	71.65
2.32	71.84
2.332	71.82
2.344	71.72
2.356	71.49
2.368	71.29
2.38	71.26
2.392	71.18
2.404	71.32
2.416	71.27
2.428	71.1
2.44	70.87
2.452	70.61
2.464	70.3
2.476	69.97
2.488	69.97
2.5	70.04
