Name: Talc Mg_3Si_4O_10(OH)_2
Type: Mineral
Class: Silicates
Subclass: Phyllosilicates
Particle Size: 0-45um
Sample No.: PS-14A
Owner: JPL
Wavelength Range: VNIR-SWIR
Origin: USA, Georgia, Cherokee County, Holly Springs
Measurement: Hemispherical reflectance
X Units: Wavelength (micrometers)
Y Units: Reflectance (percent)
wavelength	value
0.4	81.56
0.403	81.61
0.406	82.18
0.409	82.18
0.412	82.53
0.415	82.76
0.418	82.76
0.421	83.26
0.424	82.99
0.427	83.49
0.43	83.84
0.433	83.26
0.436	83.67
0.439	83.55
0.442	83.95
0.445	84.01
0.448	83.67
0.451	84.07
0.454	83.85
0.457	84.3
0.46	84.31
0.463	84.55
0.466	84.26
0.469	84.56
0.472	84.73
0.475	84.57
0.478	84.97
0.481	84.91
0.484	84.81
0.487	85.38
0.49	84.93
0.493	85.35
0.496	85.52
0.499	85.24
0.502	85.69
0.505	85.69
0.508	85.75
0.511	86.09
0.514	85.92
0.517	85.98
0.52	86.26
0.523	85.98
0.526	86.32
0.529	86.03
0.532	86.03
0.535	86.26
0.538	85.98
0.541	86.15
0.544	86.32
0.547	85.86
0.55	86.44
0.553	86.44
0.556	86.21
0.559	86.72
0.562	86.32
0.565	86.38
0.568	86.72
0.571	86.09
0.574	86.21
0.577	86.03
0.58	85.8
0.583	86.09
0.586	85.8
0.589	86.03
0.592	86.03
0.595	85.57
0.598	86.09
0.601	85.69
0.604	85.75
0.607	85.8
0.61	85.4
0.613	85.63
0.616	85.3
0.619	85.01
0.622	85.46
0.625	85.07
0.628	85.13
0.631	85.13
0.634	84.78
0.637	85.13
0.64	84.84
0.643	84.55
0.646	84.9
0.649	84.67
0.652	84.9
0.655	84.9
0.658	84.55
0.661	85.01
0.664	84.72
0.667	84.72
0.67	85.07
0.673	84.61
0.676	85.01
0.679	84.95
0.682	84.78
0.685	85.18
0.688	84.84
0.691	84.9
0.694	85.01
0.697	84.84
0.7	84.78
0.703	84.78
0.706	84.55
0.709	85.07
0.712	84.67
0.715	84.84
0.718	84.84
0.721	84.49
0.724	84.84
0.727	84.44
0.73	84.38
0.733	84.9
0.736	84.38
0.739	84.55
0.742	84.61
0.745	84.32
0.748	84.55
0.751	84.26
0.754	84.09
0.757	84.32
0.76	83.98
0.763	84.26
0.766	83.92
0.769	83.69
0.772	84.03
0.775	83.58
0.778	83.75
0.781	83.53
0.784	83.47
0.787	83.41
0.79	83.01
0.793	83.41
0.796	83.01
0.799	82.95
0.808	82.72
0.82	82.15
0.832	82.09
0.844	81.76
0.856	81.7
0.868	81.76
0.88	81.76
0.892	81.76
0.904	81.87
0.916	81.81
0.928	82.09
0.94	81.93
0.952	81.64
0.964	81.99
0.976	81.81
0.988	81.87
1	81.64
1.012	81.76
1.024	81.81
1.036	81.93
1.048	82.15
1.06	82.26
1.072	82.55
1.084	82.78
1.096	83.07
1.108	83.47
1.12	83.92
1.132	84.15
1.144	84.55
1.156	84.83
1.168	85.32
1.18	85.47
1.192	85.68
1.204	86
1.216	86.23
1.228	86.29
1.24	86.52
1.252	86.52
1.264	86.78
1.276	86.13
1.288	86.85
1.3	86.83
1.312	87.1
1.324	86.9
1.336	87.06
1.348	87.14
1.36	87.14
1.372	87.2
1.384	83.73
1.396	74.67
1.408	86.19
1.42	87.12
1.432	87.14
1.444	87.22
1.456	87.41
1.468	87.41
1.48	87.45
1.492	87.51
1.504	87.57
1.516	87.85
1.528	87.68
1.54	87.63
1.552	87.74
1.564	87.91
1.576	87.74
1.588	87.85
1.6	87.74
1.612	87.89
1.624	87.64
1.636	87.85
1.648	87.71
1.66	87.75
1.672	87.68
1.684	87.76
1.696	87.63
1.708	87.79
1.72	87.73
1.732	87.67
1.744	87.62
1.756	87.67
1.768	87.62
1.78	87.46
1.792	87.62
1.804	87.43
1.816	87.34
1.828	87.08
1.84	86.89
1.852	87.04
1.864	86.62
1.876	86.43
1.888	85.84
1.9	85.25
1.912	84.96
1.924	85.21
1.936	85.08
1.948	85.39
1.96	85.52
1.972	85.62
1.984	85.79
1.996	85.49
2.008	85.39
2.02	85.44
2.032	85.75
2.044	85.55
2.056	84.95
2.068	83.83
2.08	82.95
2.092	83.24
2.104	83.36
2.116	83.37
2.128	82.86
2.14	82.88
2.152	83.45
2.164	83.35
2.176	83.27
2.188	83.69
2.2	84.17
2.212	83.51
2.224	82.41
2.236	81.46
2.248	80.41
2.26	77.13
2.272	70.73
2.284	62.8
2.296	55.87
2.308	53.88
2.32	59.72
2.332	67.91
2.344	73.54
2.356	73.17
2.368	69.1
2.38	65.16
2.392	64.81
2.404	67.62
2.416	70.43
2.428	71.01
2.44	70.45
2.452	69.55
2.464	69.47
2.476	69.9
2.488	70.2
2.5	70.41
