Name: Vesicular Basalt
Type: Rock
Class: Igneous
Subclass: Mafic
Particle Size: Solid surface
Sample No.: Ward33.txt
Owner: JPL
Origin: Ward's Collection of American Rocks.  Sample locality - Tenderfoot Mountain, 1/4 mile north of Salida, Chaffee County, Colorado.
Description: A black, semi-glassy rock containing abundant vesicles lined
Measurement: Hemispherical reflectance
X Units: Wavelength (micrometers)
Y Units: Reflectance (percent)
wavelength	value
15.3871	4.12129
15.118	4.1449
14.8581	4.10502
14.6069	4.20797
14.3642	3.68721
14.1293	3.63508
13.9021	4.13912
13.682	3.86747
13.4687	4.34332
13.2621	4.35369
13.0616	4.40241
12.8672	3.39423
12.6784	4.24101
12.4951	3.79857
12.317	4.21013
12.1439	4.57424
11.9757	4.71132
11.812	5.97801
11.6527	6.29541
11.4977	6.89716
11.3468	6.71395
11.1997	7.08934
11.0564	7.48787
10.9168	8.19764
10.7806	9.13934
10.6478	9.94801
10.5182	10.9265
10.3917	11.724
10.2683	12.3907
10.1477	14.1258
10.0299	15.5045
9.9148	16.1162
9.8024	15.7292
9.6925	16.2313
9.585	16.594
9.4798	14.2654
9.377	12.7513
9.2763	11.0045
9.1778	10.4858
9.0814	9.28388
8.987	7.75655
8.8945	8.13336
8.8039	8.06908
8.7151	8.77988
8.6281	8.89268
8.5428	9.05078
8.4592	9.23516
8.3772	9.15439
8.2967	7.74597
8.2179	5.89277
8.1404	5.25299
8.0645	4.18496
7.9899	3.62413
7.9167	3.73154
7.8449	3.57156
7.7743	3.38366
7.705	3.25015
7.6369	3.04067
7.57	3.62602
7.5043	3.07671
7.4397	3.35196
7.3762	3.4246
7.3138	3.28423
7.2524	3.43937
7.1921	3.69074
7.1327	3.4749
7.0743	3.66421
7.0169	3.55041
6.9604	3.76775
6.9047	3.59093
6.85	3.5076
6.7962	3.48981
6.7431	4.08924
6.6909	4.19656
6.6395	4.16639
6.5889	3.96189
6.539	3.95698
6.49	3.81513
6.4416	3.55294
6.3939	3.7528
6.347	3.81098
6.3007	3.89144
6.2551	3.64568
6.2101	3.59626
6.1658	3.62233
6.1222	3.89099
6.0791	3.58242
6.0366	3.63254
5.9948	3.63371
5.9535	3.57123
5.9127	4.07285
5.8726	4.17479
5.8329	4.00719
5.7938	4.25353
5.7552	4.33304
5.7172	4.00441
5.6796	4.52696
5.6425	4.50014
5.6059	4.56851
5.5698	4.62622
5.5341	4.58704
5.4989	4.74943
5.4641	5.24397
5.4298	5.18627
5.3959	5.31861
5.3624	5.43231
5.3294	5.47095
5.2967	5.32937
5.2644	5.56312
5.2326	5.56012
5.2011	5.68869
5.17	5.79186
5.1392	5.85949
5.1088	6.0426
5.0788	6.08838
5.0491	6.42536
5.0198	6.48703
4.9908	6.51823
4.9622	6.56687
4.9338	7.12353
4.9058	7.0003
4.8781	7.06326
4.8508	6.906
4.8237	7.15189
4.7969	7.14371
4.7704	7.35687
4.7443	7.4107
4.7184	7.55134
4.6927	7.86001
4.6674	7.84519
4.6423	8.01578
4.6175	8.06167
4.593	8.31462
4.5687	8.61936
4.5447	8.79817
4.5209	8.83781
4.4974	9.07784
4.4741	9.22212
4.451	9.42634
4.4282	9.38581
4.4057	9.30708
4.3833	9.51663
4.3612	9.70221
4.3393	9.93233
4.3176	9.70711
4.2962	9.71128
4.2749	9.98543
4.2539	9.89642
4.233	10.0862
4.2124	10.2299
4.192	10.2616
4.1717	10.3298
4.1517	10.4019
4.1319	10.2097
4.1122	10.0739
4.0927	10.77
4.0734	10.2775
4.0543	10.6127
4.0354	10.332
4.0166	10.4207
3.9981	10.4869
3.9796	10.2262
3.9614	10.4705
3.9433	10.5561
3.9254	10.3035
3.9077	10.3841
3.8901	10.7415
3.8726	10.4623
3.8554	10.341
3.8382	10.5438
3.8213	10.0332
3.8045	10.2527
3.7878	10.544
3.7713	10.4357
3.7549	10.2834
3.7386	10.3709
3.7225	9.95485
3.7066	10.2256
3.6907	10.4545
3.675	10.1838
3.6595	9.80968
3.644	9.99208
3.6287	9.75768
3.6136	10.0118
3.5985	9.6419
3.5836	10.2985
3.5688	9.81141
3.5541	9.80779
3.5396	9.169
3.5251	9.77555
3.5108	9.24374
3.4966	9.34132
3.4825	9.0274
3.4685	8.22158
3.4547	8.84745
3.4409	8.89421
3.4273	8.21442
3.4137	8.05162
3.4003	8.68272
3.387	8.27511
3.3738	8.26212
3.3606	7.99769
3.3476	8.24526
3.3347	7.94965
3.3219	7.9922
3.3092	8.05198
3.2965	8.24571
3.284	8.38725
3.2716	7.2466
3.2593	7.92479
3.247	7.08494
3.2348	7.57629
3.2228	7.0783
3.2108	7.27051
3.1989	7.2223
3.1871	6.73036
3.1754	7.19465
3.1638	6.64744
3.1523	6.19058
3.1408	6.45227
3.1294	5.98434
3.1181	5.81686
3.1069	5.53529
3.0958	5.99032
3.0848	5.60792
3.0738	6.05511
3.0629	4.74888
3.0521	6.49215
3.0413	5.31011
3.0307	5.65331
3.0201	4.92265
3.0096	5.30968
2.9991	4.70052
2.9887	4.97198
2.9784	6.00362
2.9682	4.33496
2.9581	5.20191
2.948	4.49267
2.9379	4.79811
2.928	5.3803
2.9181	4.65437
2.9083	4.76132
2.8985	4.98971
2.8888	4.50924
2.8792	4.3977
2.8697	4.41828
2.8602	4.40231
2.8507	4.14979
2.8413	5.06271
2.832	4.92373
2.8228	3.99597
2.8136	4.0575
2.8045	4.53553
2.7954	4.4763
2.7864	5.08502
2.7774	4.27186
2.7685	5.08655
2.7597	5.17387
2.7509	6.52555
2.7422	6.28426
2.7335	6.89573
2.7249	7.52936
2.7163	7.99697
2.7078	9.38985
2.6994	10.279
2.691	11.4078
2.6826	11.0775
2.6743	11.4816
2.666	11.2863
2.6578	10.8178
2.6497	11.4377
2.6416	11.1347
2.6336	11.4723
2.6256	10.7124
2.6176	11.6404
2.6097	11.4836
2.6018	10.8097
2.594	11.5909
2.5863	11.3462
2.5785	11.7256
2.5709	11.1592
2.5633	11.6685
2.5557	11.8006
2.5481	10.6269
2.5406	11.4791
2.5332	10.0339
2.5258	10.8431
2.5184	10.336
2.5111	10.9373
2.5038	11.253
2.4966	10.7543
2.4894	10.138
2.4823	11.6497
2.4752	11.0722
2.4681	11.0567
2.4611	11.2796
2.4541	10.9308
2.4471	11.1384
2.4402	10.5093
2.4333	10.2057
2.4265	11.1297
2.4197	11.0841
2.413	11.0857
2.4063	10.8434
2.3996	10.5878
2.3929	10.2333
2.3863	10.3762
2.3798	12.0515
2.3732	11.6252
2.3667	10.4044
2.3603	11.2304
2.3538	10.9911
2.3474	10.9935
2.3411	11.0322
2.3347	10.3472
2.3285	10.8139
2.3222	10.9822
2.316	10.277
2.3098	9.7142
2.3036	10.8252
2.2975	11.344
2.2914	11.1105
2.2854	11.47
2.2793	11.2363
2.2733	11.8053
2.2674	11.4089
2.2614	10.6281
2.2555	10.2739
2.2497	10.5005
2.2438	10.9068
2.238	10.075
2.2322	8.80421
2.2265	10.7918
2.2208	11.563
2.2151	10.493
2.2094	10.8935
2.2038	11.5006
2.1982	10.5387
2.1926	12.3851
2.187	11.6589
2.1815	10.3147
2.176	12.5572
2.1706	10.6881
2.1651	12.015
2.1597	11.5544
2.1543	11.2974
2.149	11.869
2.1436	11.0123
2.1383	10.298
2.1331	12.3397
2.1278	11.688
2.1226	12.3575
2.1174	11.6606
2.1122	11.5867
2.1071	12.9908
2.1019	12.272
2.0968	11.5567
2.0918	11.5992
2.0867	10.4437
2.0817	12.6167
2.0767	12.0553
2.0717	11.6785
2.0667	12.6883
2.0618	11.0784
2.0569	10.0342
2.052	11.274
2.0472	11.0716
2.0423	10.8852
2.0375	12.9578
2.0327	11.0085
2.028	9.57241
2.0232	12.1817
2.0185	11.0008
2.0138	12.532
2.0091	11.4834
2.0044	12.813
1.9998	13.005
