Name: Biotite K(Mg,Fe^2+)_3(Al,Fe^3+)Si_3O_10(OH,F)_2
Type: Mineral
Class: Silicates
Subclass: Phyllosilicates
Particle Size: 0-45um
Sample No.: PS-23A
Owner: JPL
Wavelength Range: VNIR-SWIR
Measurement: Hemispherical reflectance
X Units: Wavelength (micrometers)
Y Units: Reflectance (percent)
wavelength	value
0.4	7.01
0.403	7.05
0.406	7.17
0.409	7.15
0.412	7.17
0.415	7.22
0.418	7.33
0.421	7.35
0.424	7.39
0.427	7.52
0.43	7.63
0.433	7.5
0.436	7.58
0.439	7.76
0.442	7.86
0.445	7.97
0.448	8.04
0.451	8.24
0.454	8.14
0.457	8.07
0.46	8.22
0.463	8.34
0.466	8.41
0.469	8.51
0.472	8.5
0.475	8.56
0.478	8.75
0.481	8.89
0.484	8.9
0.487	8.99
0.49	9.08
0.493	9.13
0.496	9.16
0.499	9.44
0.502	9.53
0.505	9.46
0.508	9.6
0.511	9.68
0.514	9.74
0.517	9.78
0.52	9.98
0.523	10.11
0.526	10.09
0.529	10.24
0.532	10.21
0.535	10.28
0.538	10.31
0.541	10.46
0.544	10.49
0.547	10.61
0.55	10.57
0.553	10.63
0.556	10.65
0.559	10.6
0.562	10.89
0.565	10.8
0.568	10.85
0.571	10.91
0.574	10.96
0.577	10.88
0.58	10.96
0.583	11.04
0.586	10.95
0.589	10.92
0.592	11.1
0.595	11.17
0.598	11.1
0.601	11.03
0.604	11.18
0.607	11.08
0.61	11.08
0.613	11.26
0.616	11.19
0.619	11.13
0.622	11.17
0.625	11.01
0.628	11.11
0.631	10.98
0.634	11.08
0.637	11.04
0.64	11.01
0.643	10.99
0.646	10.96
0.649	11.08
0.652	10.86
0.655	10.94
0.658	10.96
0.661	10.91
0.664	10.92
0.667	10.83
0.67	10.81
0.673	10.86
0.676	10.77
0.679	10.72
0.682	10.77
0.685	10.74
0.688	10.69
0.691	10.71
0.694	10.83
0.697	10.65
0.7	10.67
0.703	10.72
0.706	10.71
0.709	10.71
0.712	10.74
0.715	10.73
0.718	10.76
0.721	10.86
0.724	10.81
0.727	10.8
0.73	10.84
0.733	10.9
0.736	10.87
0.739	10.84
0.742	10.97
0.745	11.04
0.748	11.09
0.751	11.18
0.754	11.16
0.757	11.26
0.76	11.31
0.763	11.39
0.766	11.51
0.769	11.36
0.772	11.54
0.775	11.63
0.778	11.77
0.781	11.83
0.784	11.93
0.787	11.98
0.79	11.9
0.793	12.03
0.796	12.07
0.799	12.09
0.808	12.13
0.82	12.39
0.832	12.48
0.844	12.51
0.856	12.6
0.868	12.53
0.88	12.58
0.892	12.63
0.904	12.59
0.916	12.61
0.928	12.78
0.94	12.92
0.952	13.01
0.964	13.23
0.976	13.37
0.988	13.48
1	13.68
1.012	13.84
1.024	13.99
1.036	14.06
1.048	14.11
1.06	14.21
1.072	14.22
1.084	14.3
1.096	14.35
1.108	14.36
1.12	14.44
1.132	14.53
1.144	14.64
1.156	14.77
1.168	14.8
1.18	14.93
1.192	15.18
1.204	15.45
1.216	15.57
1.228	15.77
1.24	16.08
1.252	16.32
1.264	16.65
1.276	16.92
1.288	17.28
1.3	17.56
1.312	18
1.324	18.27
1.336	18.62
1.348	19.04
1.36	19.37
1.372	19.67
1.384	20.07
1.396	20.39
1.408	20.94
1.42	21.35
1.432	21.84
1.444	22.23
1.456	22.69
1.468	23.08
1.48	23.5
1.492	23.95
1.504	24.4
1.516	24.89
1.528	25.3
1.54	25.81
1.552	26.25
1.564	26.68
1.576	27.11
1.588	27.55
1.6	28.05
1.612	28.45
1.624	28.97
1.636	29.4
1.648	29.87
1.66	30.39
1.672	30.78
1.684	31.22
1.696	31.74
1.708	32.16
1.72	32.69
1.732	33.13
1.744	33.51
1.756	33.96
1.768	34.37
1.78	34.89
1.792	35.36
1.804	35.71
1.816	36.11
1.828	36.62
1.84	36.98
1.852	37.39
1.864	37.88
1.876	38.24
1.888	38.55
1.9	38.94
1.912	39.29
1.924	39.68
1.936	40.09
1.948	40.5
1.96	40.93
1.972	41.33
1.984	41.84
1.996	42.27
2.008	42.62
2.02	43.04
2.032	43.42
2.044	43.69
2.056	44.12
2.068	44.45
2.08	44.81
2.092	45.1
2.104	45.47
2.116	45.78
2.128	46.11
2.14	46.44
2.152	46.62
2.164	46.9
2.176	47.05
2.188	47.26
2.2	47.53
2.212	47.67
2.224	47.8
2.236	47.65
2.248	47.59
2.26	47.82
2.272	48.15
2.284	48.18
2.296	47.94
2.308	47.48
2.32	47.13
2.332	47.06
2.344	47.28
2.356	47.83
2.368	47.98
2.38	48.21
2.392	48.16
2.404	48.43
2.416	48.97
2.428	49.28
2.44	49.61
2.452	49.85
2.464	50.04
2.476	50.27
2.488	50.62
2.5	50.96
