Name: Tourmaline Na(Mg_3,Fe_3^2+)Al_6(BO_3)_3Si_6O_18(OH)_4
Type: Mineral
Class: Silicates
Subclass: Cyclosilicates
Particle Size: 45-125um
Sample No.: CS-1A
Owner: JPL
Wavelength Range: VNIR-SWIR
Origin: USA, New York, Overlook
Measurement: Hemispherical reflectance
X Units: Wavelength (micrometers)
Y Units: Reflectance (percent)
wavelength	value
0.4	1.98
0.403	1.92
0.406	1.86
0.409	1.85
0.412	1.92
0.415	1.92
0.418	1.91
0.421	1.8
0.424	1.79
0.427	1.97
0.43	1.91
0.433	1.85
0.436	1.85
0.439	1.73
0.442	1.79
0.445	1.85
0.448	1.85
0.451	1.67
0.454	1.72
0.457	1.77
0.46	1.77
0.463	1.73
0.466	1.67
0.469	1.67
0.472	1.73
0.475	1.79
0.478	1.78
0.481	1.66
0.484	1.66
0.487	1.53
0.49	1.77
0.493	1.7
0.496	1.57
0.499	1.63
0.502	1.68
0.505	1.74
0.508	1.68
0.511	1.67
0.514	1.5
0.517	1.67
0.52	1.68
0.523	1.73
0.526	1.68
0.529	1.56
0.532	1.57
0.535	1.59
0.538	1.65
0.541	1.6
0.544	1.59
0.547	1.52
0.55	1.69
0.553	1.63
0.556	1.68
0.559	1.59
0.562	1.44
0.565	1.55
0.568	1.61
0.571	1.56
0.574	1.47
0.577	1.37
0.58	1.49
0.583	1.61
0.586	1.55
0.589	1.49
0.592	1.43
0.595	1.48
0.598	1.53
0.601	1.57
0.604	1.56
0.607	1.61
0.61	1.49
0.613	1.44
0.616	1.55
0.619	1.49
0.622	1.49
0.625	1.38
0.628	1.32
0.631	1.55
0.634	1.5
0.637	1.5
0.64	1.43
0.643	1.43
0.646	1.55
0.649	1.5
0.652	1.49
0.655	1.44
0.658	1.49
0.661	1.61
0.664	1.49
0.667	1.44
0.67	1.37
0.673	1.44
0.676	1.61
0.679	1.43
0.682	1.49
0.685	1.32
0.688	1.49
0.691	1.61
0.694	1.43
0.697	1.5
0.7	1.46
0.703	1.43
0.706	1.55
0.709	1.49
0.712	1.55
0.715	1.61
0.718	1.43
0.721	1.61
0.724	1.6
0.727	1.55
0.73	1.6
0.733	1.43
0.736	1.55
0.739	1.66
0.742	1.55
0.745	1.49
0.748	1.43
0.751	1.66
0.754	1.89
0.757	1.83
0.76	1.6
0.763	1.48
0.766	1.66
0.769	1.6
0.772	1.71
0.775	1.66
0.778	1.6
0.781	1.89
0.784	1.77
0.787	1.89
0.79	1.71
0.793	1.83
0.796	1.72
0.799	1.85
0.808	2.19
0.82	2.2
0.832	2.25
0.844	2.31
0.856	2.32
0.868	2.38
0.88	2.38
0.892	2.32
0.904	2.32
0.916	2.38
0.928	2.38
0.94	2.38
0.952	2.33
0.964	2.27
0.976	2.33
0.988	2.2
1	2.21
1.012	2.2
1.024	2.14
1.036	2.21
1.048	2.14
1.06	2.14
1.072	2.24
1.084	2.15
1.096	2.2
1.108	2.26
1.12	2.22
1.132	2.17
1.144	2.19
1.156	2.19
1.168	2.14
1.18	2.2
1.192	2.19
1.204	2.18
1.216	2.13
1.228	2.17
1.24	2.21
1.252	2.2
1.264	2.24
1.276	2.24
1.288	2.18
1.3	2.24
1.312	2.25
1.324	2.23
1.336	2.24
1.348	2.24
1.36	2.3
1.372	2.35
1.384	2.42
1.396	2.36
1.408	2.42
1.42	2.35
1.432	2.42
1.444	2.41
1.456	2.48
1.468	2.55
1.48	2.6
1.492	2.65
1.504	2.7
1.516	2.71
1.528	2.76
1.54	2.76
1.552	2.88
1.564	2.95
1.576	3.1
1.588	3.21
1.6	3.22
1.612	3.33
1.624	3.45
1.636	3.57
1.648	3.62
1.66	3.74
1.672	3.83
1.684	3.96
1.696	4.13
1.708	4.28
1.72	4.46
1.732	4.56
1.744	4.81
1.756	4.96
1.768	5.18
1.78	5.45
1.792	5.65
1.804	5.77
1.816	6.01
1.828	6.39
1.84	6.67
1.852	6.89
1.864	7.18
1.876	7.36
1.888	7.69
1.9	7.93
1.912	8.21
1.924	8.55
1.936	8.83
1.948	9.15
1.96	9.54
1.972	9.88
1.984	10.19
1.996	10.53
2.008	10.87
2.02	11.24
2.032	11.55
2.044	11.94
2.056	12.21
2.068	12.6
2.08	12.99
2.092	13.48
2.104	13.87
2.116	14.15
2.128	14.51
2.14	14.75
2.152	15.02
2.164	15.26
2.176	15.31
2.188	14.8
2.2	14.24
2.212	14.77
2.224	15.46
2.236	15.6
2.248	16.29
2.26	17.34
2.272	17.72
2.284	17.66
2.296	17.54
2.308	17.52
2.32	17.39
2.332	16.99
2.344	16.2
2.356	15.65
2.368	16.26
2.38	17.65
2.392	18.87
2.404	19.41
2.416	19.66
2.428	19.6
2.44	19.54
2.452	19.37
2.464	19.19
2.476	19.09
2.488	19.18
2.5	19.39
