Name: Pyrophyllite Al_2Si_4O_10(OH)_2
Type: Mineral
Class: Silicates
Subclass: Phyllosilicates
Particle Size: 45-125um
Sample No.: PS-7A
Owner: JPL
Origin: USA, California
Measurement: Hemispherical reflectance
X Units: Wavelength (micrometers)
Y Units: Reflectance (percent)
wavelength	value
15.3853	4.7841
15.1161	3.22896
14.8563	2.66297
14.6052	3.03454
14.3624	3.25942
14.1276	3.74849
13.9004	4.63743
13.6803	4.93859
13.4671	5.03689
13.2604	6.09077
13.06	7.06749
12.8656	8.21453
12.6769	7.96931
12.4936	8.02098
12.3155	5.5973
12.1425	6.01284
11.9742	6.41564
11.8106	6.0086
11.6513	5.85857
11.4963	7.37102
11.3454	8.61354
11.1983	9.16735
11.0551	9.08668
10.9154	9.53488
10.7793	9.90679
10.6465	11.0379
10.5169	14.778
10.3904	10.4601
10.267	7.66328
10.1464	9.60612
10.0287	10.9745
9.91364	11.9613
9.80119	13.2835
9.69128	15.0746
9.5838	19.3194
9.47867	26.5853
9.37583	33.6665
9.27519	39.9561
9.17669	42.819
9.08027	42.1363
8.98585	26.2881
8.89337	39.1018
8.80277	42.785
8.714	42.5776
8.62701	39.6483
8.54174	37.6307
8.45813	33.6223
8.37614	29.5146
8.29573	25.718
8.21685	19.2866
8.13946	12.956
8.0635	8.37559
7.98896	5.21474
7.91578	3.04062
7.84392	1.90954
7.77337	1.16399
7.70406	0.947883
7.63598	0.836914
7.5691	1.05135
7.50338	1.30741
7.43879	1.78018
7.37529	2.18796
7.31288	2.66176
7.25152	3.40429
7.19117	3.90519
7.13182	4.55916
7.07344	5.13006
7.01601	6.05874
6.95951	6.41432
6.90391	6.86371
6.84918	7.11029
6.79532	7.74833
6.74231	8.13852
6.69011	8.90384
6.63871	9.80396
6.5881	9.56636
6.53825	9.86286
6.48915	11.5756
6.44079	12.3428
6.39314	12.3599
6.34618	12.1704
6.29992	11.7976
6.25432	11.4965
6.20938	11.4509
6.16508	12.1733
6.12141	13.626
6.07835	14.4996
6.0359	15.4412
5.99403	15.2934
5.95274	13.9686
5.91201	13.7142
5.87184	14.3343
5.83221	13.9269
5.79311	12.2983
5.75453	12.3292
5.71646	12.6361
5.6789	12.7004
5.64182	11.8673
5.60522	11.1624
5.5691	10.9566
5.53344	11.1327
5.49823	11.5123
5.46347	11.8648
5.42914	11.3963
5.39525	9.91574
5.36177	8.0941
5.32871	6.85613
5.29605	6.47201
5.26379	8.30199
5.23192	10.567
5.20044	12.1821
5.16933	13.1105
5.13859	14.2627
5.10821	13.9711
5.07819	13.6037
5.04852	13.3491
5.0192	14.232
4.99021	15.1792
4.96156	18.5269
4.93324	22.3069
4.90524	26.5677
4.87755	32.4342
4.85017	36.8629
4.8231	38.6341
4.79633	39.9454
4.76986	40.4881
4.74367	42.1908
4.71777	42.9251
4.69216	43.5201
4.66682	45.1952
4.64175	48.1657
4.61695	50.1106
4.59241	50.7046
4.56814	49.9904
4.54411	50.1491
4.52034	49.4267
4.49682	48.4335
4.47354	48.5647
4.4505	50.7868
4.4277	53.0358
4.40513	54.0361
4.38278	55.6832
4.36067	57.4846
4.33877	58.735
4.3171	59.1918
4.29564	59.0736
4.27439	59.9418
4.25335	61.6807
4.23252	62.7366
4.21189	63.6466
4.19146	63.9014
4.17123	64.5374
4.15119	65.0171
4.13134	65.3341
4.11168	65.7835
4.09221	66.1819
4.07292	66.4723
4.05382	66.6879
4.03489	66.8415
4.01614	66.8584
3.99756	67.0995
3.97915	67.2454
3.96091	67.5359
3.94284	67.7365
3.92493	67.8137
3.90718	67.7711
3.8896	67.5732
3.87217	67.3994
3.8549	67.2316
3.83777	66.9923
3.82081	66.7838
3.80399	66.6467
3.78731	66.3352
3.77079	66.0275
3.7544	65.7712
3.73816	65.539
3.72206	65.1475
3.7061	64.4134
3.69027	58.5901
3.67458	60.2501
3.65902	61.9148
3.64359	64.079
3.6283	65.0017
3.61312	65.0804
3.59808	64.6753
3.58316	64.2124
3.56836	64.2227
3.55369	64.2022
3.53914	63.9179
3.5247	63.4915
3.51038	62.2737
3.49618	61.9222
3.48209	61.997
3.46812	62.0781
3.45425	61.6925
3.4405	60.8699
3.42686	59.261
3.41332	58.5477
3.39989	59.1513
3.38657	58.9602
3.37335	58.5079
3.36023	58.7506
3.34721	58.5559
3.3343	58.5127
3.32148	58.1903
3.30876	57.7845
3.29614	57.1365
3.28362	56.5959
3.27119	56.6902
3.25885	56.2607
3.24661	55.6091
3.23446	55.149
3.22239	54.8835
3.21042	54.4409
3.19854	54.0845
3.18674	53.6433
3.17504	52.5268
3.16341	52.1924
3.15187	52.189
3.14042	52.0768
3.12905	51.687
3.11776	51.1547
3.10655	50.3349
3.09542	49.9701
3.08437	49.6803
3.0734	49.2923
3.06251	48.8185
3.0517	48.4211
3.04096	48.1625
3.03029	47.3534
3.0197	46.8189
3.00919	44.7682
2.99875	44.5419
2.98838	43.3467
2.97808	42.1491
2.96785	42.677
2.95769	44.2034
2.9476	45.5904
2.93758	44.9311
2.92763	43.0594
2.91775	41.3271
2.90793	42.7738
2.89817	41.601
2.88849	40.0581
2.87886	40.1113
2.8693	36.9734
2.85981	37.809
2.85038	38.5318
2.841	39.4486
2.83169	41.7842
2.82245	42.031
2.81326	40.7313
2.80413	39.9391
2.79506	38.9744
2.78605	35.5159
2.77709	35.5442
2.7682	30.0943
2.75936	25.0162
2.75057	22.9241
2.74185	13.9067
2.73318	12.5407
2.72456	8.90972
2.71599	6.69467
2.70748	11.4024
2.69903	18.5175
2.69062	28.2802
2.68227	35.553
2.67397	40.1431
2.66572	44.9459
2.65753	46.7981
2.64938	48.7265
2.64128	48.3669
2.63323	48.7912
2.62523	48.4304
2.61728	45.9164
2.60938	40.0359
2.60152	40.8295
2.59371	44.3641
2.58595	48.0159
2.57824	51.7691
2.57057	49.5412
2.56294	52.3986
2.55536	52.183
2.54783	49.6906
2.54034	53.3942
2.53289	54.0433
2.52549	52.325
2.51813	49.0132
2.51082	47.0255
2.50354	47.6756
2.49631	48.6117
2.48912	49.7551
2.48197	50.809
2.47486	54.133
2.46779	54.583
2.46077	55.0095
2.45378	54.602
2.44683	55.4976
2.43992	55.6007
2.43305	54.2832
2.42622	54.777
2.41943	56.2871
2.41267	56.9218
2.40595	56.5112
2.39928	56.6477
2.39263	55.8865
2.38603	56.9704
2.37946	59.6927
2.37292	62.4031
2.36642	61.0309
2.35996	60.2328
2.35353	59.6979
2.34714	59.0397
2.34078	61.4499
2.33446	61.3837
2.32817	57.8873
2.32191	53.9372
2.31569	55.0035
2.3095	58.1997
2.30335	60.3385
2.29722	61.8304
2.29113	62.6295
2.28507	64.2607
2.27905	66.7066
2.27305	69.2888
2.26709	70.7335
2.26116	71.6962
2.25526	72.5974
2.24939	73.8112
2.24355	74.5005
2.23774	75.371
2.23196	75.5494
2.22621	74.6216
2.22049	71.7999
2.21479	72.3049
2.20913	70.3394
2.2035	72.4333
2.19789	73.0183
2.19232	72.467
2.18677	70.5622
2.18125	65.6994
2.17576	56.0223
2.17029	42.8783
2.16486	40.8927
2.15945	53.858
2.15406	62.1993
2.14871	69.2432
2.14338	73.502
2.13808	74.8313
2.1328	76.4255
2.12755	77.925
2.12232	80.273
2.11712	81.2432
2.11195	82.8016
2.1068	83.8778
2.10168	83.7658
2.09658	83.5447
2.0915	82.348
2.08645	80.2795
2.08143	79.0566
2.07643	80.7008
2.07145	80.8439
2.06649	80.4071
2.06156	81.3892
2.05666	83.4068
2.05177	84.9961
2.04691	85.6
2.04208	86.1175
2.03726	86.1018
2.03247	85.9936
2.0277	86.0974
2.02295	85.8918
2.01823	85.9201
2.01353	85.9222
2.00885	86.1147
2.00419	86.2716
