Name: Flat Black Paint
Type: Manmade materials
Class: General Construction Materials
Subclass: Paints
Particle Size: Solid
Sample No.: 7211
Owner: JPL
Origin: The Sherwin-Williams Co., Solon, OH 44139
Description: Flat black latex enamel spray paint.
Measurement: Hemispherical reflectance
X Units: Wavelength (micrometers)
Y Units: Reflectance (percent)
wavelength	value
14.0131	3.68955
13.7895	4.52026
13.5729	4.77823
13.363	5.10607
13.1595	4.73841
12.9621	4.53668
12.7705	4.85964
12.5845	4.79063
12.4039	4.78202
12.2284	5.23914
12.0578	5.27535
11.8918	5.44621
11.7304	5.71381
11.5733	5.86995
11.4203	6.20873
11.2714	6.53138
11.1263	7.0915
10.9848	7.4455
10.8469	5.5249
10.7125	5.41992
10.5813	4.73356
10.4533	5.18078
10.3284	6.06215
10.2064	6.96914
10.0872	8.27139
9.97084	9.82132
9.8571	6.81586
9.74592	8.70825
9.63724	7.47706
9.53094	4.6193
9.42697	4.51217
9.32524	4.83003
9.22568	4.52185
9.12823	4.3769
9.03281	4.09095
8.93937	3.71135
8.84784	4.52571
8.75816	4.83832
8.67029	4.65158
8.58416	4.45993
8.49973	4.30124
8.41693	4.5996
8.33574	4.28871
8.2561	4.38675
8.17797	4.47948
8.10131	4.31269
8.02606	4.2244
7.9522	4.29186
7.87969	4.29633
7.80849	4.36164
7.73856	4.45134
7.66987	4.53379
7.60239	4.52129
7.5361	4.56476
7.47094	4.657
7.4069	4.54975
7.34396	4.67357
7.28207	4.66232
7.22122	4.41235
7.16137	4.41432
7.10251	4.5266
7.04461	4.82435
6.98765	4.88553
6.9316	4.73838
6.87644	4.47473
6.82215	4.42146
6.76871	4.24306
6.71611	4.59268
6.66431	4.32477
6.61331	4.50393
6.56308	4.64129
6.51361	4.66956
6.46488	4.49333
6.41687	4.60818
6.36957	4.69092
6.32297	4.69454
6.27704	4.70828
6.23177	4.53447
6.18715	4.76568
6.14317	4.66692
6.0998	4.82062
6.05705	4.93703
6.01489	4.93395
5.97331	5.14464
5.9323	5.08549
5.89186	5.13614
5.85196	5.20877
5.81259	5.46572
5.77376	4.66221
5.73543	3.63071
5.69762	4.14265
5.6603	4.51576
5.62347	4.51413
5.5871	4.59215
5.55121	4.61586
5.51578	4.66383
5.4808	4.67835
5.44625	4.70249
5.41214	4.81296
5.37846	4.76462
5.34519	4.88717
5.31233	4.83043
5.27987	4.7248
5.24781	4.90197
5.21613	4.88011
5.18483	4.92463
5.15391	4.89919
5.12335	4.85429
5.09316	4.84938
5.06331	4.8848
5.03382	4.94855
5.00467	4.95902
4.97585	4.92188
4.94736	4.90407
4.9192	4.90601
4.89135	4.938
4.86382	4.98343
4.8366	4.89997
4.80968	4.98122
4.78306	4.97216
4.75673	4.96538
4.73069	4.9909
4.70493	4.97959
4.67945	4.90014
4.65425	4.91947
4.62932	5.09444
4.60465	4.97909
4.58024	4.9716
4.55609	4.96916
4.5322	5.06608
4.50855	4.97848
4.48515	5.02499
4.46199	5.11136
4.43907	5.05574
4.41638	5.00285
4.39393	5.02055
4.3717	5.01198
4.34969	5.06147
4.32791	5.07024
4.30634	4.97034
4.28499	5.07018
4.26384	4.99411
4.24291	5.05729
4.22218	4.99412
4.20165	5.10762
4.18132	4.92682
4.16118	5.09128
4.14124	5.00486
4.12149	5.00519
4.10192	5.04587
4.08255	5.09902
4.06335	5.19475
4.04433	5.0098
4.02549	5.09157
4.00683	5.07496
3.98833	5.09279
3.97001	5.11074
3.95186	5.14282
3.93386	5.12472
3.91604	5.04829
3.89837	5.06919
3.88086	5.03552
3.86351	5.02163
3.84631	5.18823
3.82927	5.11814
3.81238	5.11408
3.79563	5.07666
3.77903	5.10494
3.76258	4.97276
3.74627	4.97494
3.7301	5.04835
3.71406	5.12522
3.69817	4.97726
3.68241	5.11324
3.66678	5.15578
3.65129	5.13633
3.63593	5.14607
3.62069	5.02304
3.60559	5.17172
3.59061	5.07014
3.57575	5.25931
3.56101	5.231
3.5464	5.23754
3.5319	5.04004
3.51753	5.23067
3.50327	5.07944
3.48912	5.23712
3.47509	5.09684
3.46117	5.03314
3.44736	5.08359
3.43367	5.07997
3.42007	5.09311
3.40659	4.79982
3.39322	4.73046
3.37994	4.72565
3.36678	4.61834
3.35371	4.58714
3.34074	4.68107
3.32788	4.79842
3.31511	4.92015
3.30244	4.74174
3.28987	4.64995
3.27739	4.93238
3.26501	4.82936
3.25272	4.73807
3.24052	4.79231
3.22841	4.9316
3.2164	4.77949
3.20447	4.92546
3.19263	4.88741
3.18088	4.92324
3.16921	4.95953
3.15763	4.84548
3.14614	4.96926
3.13472	5.00747
3.12339	5.00974
3.11214	4.98225
3.10098	4.98556
3.08989	4.92163
3.07888	5.03281
3.06795	5.16981
3.0571	4.88044
3.04632	5.20451
3.03562	5.01594
3.02499	5.07024
3.01444	5.08264
3.00396	4.89351
2.99355	5.13777
2.98322	5.02143
2.97295	5.10091
2.96276	5.02922
2.95264	5.18917
2.94258	4.94988
2.9326	5.00257
2.92268	5.17469
2.91283	5.03459
2.90304	5.01478
2.89332	5.13134
2.88367	5.05158
2.87408	5.07775
2.86455	4.8509
2.85508	5.04826
2.84568	5.22991
2.83634	4.99879
2.82706	4.8897
2.81784	5.14127
2.80869	4.98856
2.79959	5.03158
2.79055	5.07878
2.78156	4.98694
2.77264	4.79142
2.76377	4.90979
2.75496	4.91511
2.7462	4.79821
2.7375	4.67416
2.72886	4.63199
2.72027	4.96284
2.71173	4.73679
2.70325	4.76397
2.69482	4.96186
2.68644	5.06911
2.67812	5.01386
2.66984	5.1809
2.66162	5.20992
2.65345	4.98151
2.64532	5.08033
2.63725	5.26769
2.62923	4.98978
2.62125	5.0061
2.61332	4.97075
2.60544	5.21289
2.59761	4.87768
2.58983	5.11634
2.58209	5.11824
2.5744	5.2747
2.56675	5.10606
2.55915	4.99909
2.55159	5.04326
2.54408	5.11915
2.53661	5.09248
2.52919	5.00884
2.52181	5.0902
2.51447	4.99335
2.50717	5.16688
2.49992	5.12054
2.49271	5.31928
2.48554	5.22878
2.47841	5.10612
2.47132	5.09626
2.46427	5.12963
2.45727	5.21883
2.4503	5.08919
2.44337	5.15231
2.43648	5.16731
2.42963	4.99759
2.42282	4.89338
2.41605	4.96173
2.40931	5.13833
2.40261	5.24644
2.39595	5.05929
2.38932	5.12804
2.38274	5.18749
2.37618	5.0921
2.36967	4.9415
2.36319	5.23273
2.35674	5.14145
2.35033	5.24259
2.34396	4.95594
2.33762	5.10226
2.33131	5.18868
2.32504	5.20891
2.3188	5.23756
2.31259	5.22131
2.30642	4.98713
2.30028	5.27021
2.29417	5.01912
2.2881	5.30345
2.28206	5.16285
2.27605	5.25083
2.27007	5.13754
2.26412	4.84718
2.2582	5.11037
2.25232	5.1142
2.24646	5.08886
2.24064	4.95856
2.23484	5.06596
2.22908	5.07011
2.22334	5.28482
2.21764	5.13446
2.21196	5.36445
2.20631	5.11819
2.20069	4.99025
2.1951	5.19164
2.18954	5.23897
2.18401	5.09001
2.1785	5.32498
2.17302	4.9542
2.16757	5.17762
2.16215	4.94584
2.15675	5.096
2.15138	4.97745
2.14604	4.79658
2.14072	5.26914
2.13543	5.10343
2.13017	5.44107
2.12493	4.80278
2.11972	5.30221
2.11453	5.01917
2.10937	5.11258
2.10423	5.09903
2.09912	4.8967
2.09404	4.96298
2.08897	5.15454
2.08394	5.08878
2.07892	5.45688
2.07393	4.40319
2.06897	4.95963
2.06403	5.03888
2.05911	5.23539
2.05421	5.18433
2.04934	5.15342
2.04449	5.22184
2.03967	5.13448
2.03486	5.30355
2.03008	5.40902
2.02533	4.83206
2.02059	4.96138
2.01588	5.00163
2.01118	4.87241
2.00651	4.95718
2.00187	5.41729
