Name: Realgar AsS
Type: Mineral
Class: Sulfides
Particle Size: 125-500um
Sample No.: S-3A
Owner: JPL
Origin: Unknown.
Measurement: Hemispherical reflectance
X Units: Wavelength (micrometers)
Y Units: Reflectance (percent)
wavelength	value
2.5	72.2922
2.494	72.3926
2.488	72.6853
2.482	72.8363
2.476	73.3121
2.47	73.5035
2.464	73.8031
2.458	74.1237
2.452	74.4346
2.446	74.6074
2.44	74.7845
2.434	74.9652
2.428	75.4199
2.422	75.5913
2.416	75.8125
2.41	76.0057
2.404	76.2565
2.398	76.457
2.392	76.817
2.386	76.9326
2.38	77.2208
2.374	77.5144
2.368	77.6884
2.362	77.9361
2.356	78.0653
2.35	78.2066
2.344	78.4107
2.338	78.4792
2.332	78.4824
2.326	78.6101
2.32	78.6486
2.314	78.7121
2.308	78.7357
2.302	78.8334
2.296	78.9483
2.29	78.9194
2.284	79.0245
2.278	78.947
2.272	78.9483
2.266	79.0639
2.26	78.9855
2.254	79.0678
2.248	79.0778
2.242	79.1147
2.236	79.2136
2.23	79.2309
2.224	79.3158
2.218	79.3687
2.212	79.4907
2.206	79.5892
2.2	79.7695
2.194	79.7525
2.188	79.7256
2.182	79.8981
2.176	79.9935
2.17	80.0372
2.164	80.1007
2.158	80.2774
2.152	80.274
2.146	80.2213
2.14	80.1406
2.134	80.0375
2.128	79.7341
2.122	79.5308
2.116	79.124
2.11	78.6654
2.104	78.377
2.098	78.1147
2.092	78.0964
2.086	78.0531
2.08	77.9665
2.074	77.8677
2.068	77.8078
2.062	77.66
2.056	77.5578
2.05	77.4564
2.044	77.3047
2.038	77.1686
2.032	76.9476
2.026	76.7309
2.02	76.478
2.014	76.2342
2.008	75.9831
2.002	75.6597
1.996	75.3409
1.99	74.9559
1.984	74.6395
1.978	74.2108
1.972	73.8051
1.966	73.4488
1.96	73.115
1.954	72.7755
1.948	72.5852
1.942	72.3537
1.936	72.193
1.93	72.3707
1.924	72.5629
1.918	73.1003
1.912	73.5661
1.906	74.2991
1.9	75.3163
1.894	76.5393
1.888	77.6369
1.882	78.693
1.876	79.4341
1.87	79.9351
1.864	80.1851
1.858	80.4199
1.852	80.4098
1.846	80.5614
1.84	80.5301
1.834	80.5466
1.828	80.5467
1.822	80.4619
1.816	80.4815
1.81	80.4799
1.804	80.4705
1.798	80.4065
1.792	80.3786
1.786	80.3139
1.78	80.3139
1.774	80.3008
1.768	80.233
1.762	80.2307
1.756	80.2333
1.75	80.2232
1.744	80.2627
1.738	80.2534
1.732	80.1998
1.726	80.1893
1.72	80.2308
1.714	80.1482
1.708	80.13
1.702	80.0149
1.696	79.9338
1.69	79.8632
1.684	79.7619
1.678	79.7014
1.672	79.7517
1.666	79.511
1.66	79.4476
1.654	79.3232
1.648	79.2544
1.642	79.2676
1.636	79.1142
1.63	79.0419
1.624	78.946
1.618	78.8707
1.612	78.6978
1.606	78.5336
1.6	78.5327
1.594	78.4043
1.588	78.1705
1.582	78.1295
1.576	77.9682
1.57	77.812
1.564	77.6617
1.558	77.4494
1.552	77.3161
1.546	77.2051
1.54	77.0219
1.534	76.8661
1.528	76.6791
1.522	76.4579
1.516	76.3094
1.51	76.0275
1.504	75.8669
1.498	75.6063
1.492	75.403
1.486	75.1692
1.48	74.9515
1.474	74.7656
1.468	74.5441
1.462	74.3521
1.456	74.2279
1.45	74.0613
1.444	73.9817
1.438	73.9252
1.432	73.8314
1.426	73.8253
1.42	73.6889
1.414	73.7762
1.408	73.8013
1.402	73.8909
1.396	74.0299
1.39	74.0569
1.384	74.0701
1.378	74.0064
1.372	73.9037
1.366	73.7779
1.36	73.7477
1.354	73.5033
1.348	73.4252
1.342	73.3529
1.336	73.2342
1.33	73.1548
1.324	72.9617
1.318	72.9112
1.312	72.8357
1.306	72.6958
1.3	72.635
1.294	72.4937
1.288	72.3652
1.282	72.2846
1.276	72.2182
1.27	72.0953
1.264	72.0393
1.258	71.9628
1.252	71.8219
1.246	71.737
1.24	71.6891
1.234	71.6276
1.228	71.5373
1.222	71.4383
1.216	71.3242
1.21	71.2969
1.204	71.2423
1.198	71.1276
1.192	71.1354
1.186	71.0635
1.18	71.0217
1.174	70.9603
1.168	70.8598
1.162	70.8134
1.156	70.806
1.15	70.7794
1.144	70.6798
1.138	70.6666
1.132	70.592
1.126	70.676
1.12	70.5511
1.114	70.5445
1.108	70.5152
1.102	70.4663
1.096	70.3873
1.09	70.3858
1.084	70.4458
1.078	70.3223
1.072	70.2679
1.066	70.227
1.06	70.2128
1.054	70.3046
1.048	70.1204
1.042	70.1437
1.036	70.0743
1.03	70.1009
1.024	70.1093
1.018	70.0732
1.012	69.9623
1.006	69.9896
1	69.942
0.994	69.9203
0.988	69.8786
0.982	69.8783
0.976	69.8237
0.97	69.8649
0.964	69.7584
0.958	69.7773
0.952	69.7262
0.946	69.7614
0.94	69.721
0.934	69.7285
0.928	69.6816
0.922	69.665
0.916	69.6701
0.91	69.6466
0.904	69.5204
0.898	69.5713
0.892	69.5986
0.886	69.6009
0.88	69.676
0.874	69.6476
0.868	69.6548
0.862	69.6175
0.856	69.9593
0.85	69.913
0.844	69.8167
0.838	69.7107
0.832	69.6307
0.826	69.534
0.82	69.4043
0.814	69.3024
0.808	69.1644
0.802	69.0172
0.796	68.7708
0.79	68.5255
0.784	68.279
0.778	67.9309
0.772	67.5531
0.766	67.1381
0.76	66.7186
0.754	66.2095
0.748	65.756
0.742	65.3451
0.736	64.9302
0.73	64.5742
0.724	64.2578
0.718	63.9741
0.712	63.7162
0.706	63.4539
0.7	63.1969
0.694	62.9597
0.688	62.6837
0.682	62.4246
0.676	62.1254
0.67	61.7993
0.664	61.4087
0.658	60.9766
0.652	60.4581
0.646	59.789
0.64	58.9581
0.634	57.8658
0.628	56.3718
0.622	54.3625
0.616	51.6087
0.61	47.9641
0.604	43.2895
0.598	37.7539
0.592	31.768
0.586	25.8279
0.58	20.5605
0.574	16.4467
0.568	13.4656
0.562	11.4779
0.556	10.1935
0.55	9.37591
0.544	8.81908
0.538	8.44086
0.532	8.14426
0.526	7.9204
0.52	7.75863
0.514	7.64398
0.508	7.57352
0.502	7.52609
0.496	7.4853
0.49	7.45607
0.484	7.41796
0.478	7.388
0.472	7.37283
0.466	7.38336
0.46	7.41104
0.454	7.44869
0.448	7.48972
0.442	7.53317
0.436	7.55879
0.43	7.58116
0.424	7.59331
0.418	7.61274
0.412	7.63892
0.406	7.67932
0.4	7.73191
