Name: Magnesiochromite MgCr_2O_4
Type: Mineral
Class: Oxides
Particle Size: 45-125um
Sample No.: O-8A
Owner: JPL
Origin: Canada, Quebec, Coleraine Township.
Measurement: Hemispherical reflectance
X Units: Wavelength (micrometers)
Y Units: Reflectance (percent)
wavelength	value
2.5	4.24889
2.494	4.32847
2.488	4.36251
2.482	4.26409
2.476	4.38647
2.47	4.3107
2.464	4.50224
2.458	4.28095
2.452	4.32125
2.446	4.34878
2.44	4.51154
2.434	4.3361
2.428	4.458
2.422	4.42358
2.416	4.48755
2.41	4.4807
2.404	4.40454
2.398	4.45026
2.392	4.50014
2.386	4.47946
2.38	4.51329
2.374	4.44518
2.368	4.4677
2.362	4.42913
2.356	4.46347
2.35	4.44096
2.344	4.41516
2.338	4.42273
2.332	4.37519
2.326	4.36672
2.32	4.38716
2.314	4.40691
2.308	4.43031
2.302	4.4051
2.296	4.43397
2.29	4.47895
2.284	4.47658
2.278	4.46484
2.272	4.5222
2.266	4.54658
2.26	4.48872
2.254	4.55562
2.248	4.52762
2.242	4.54969
2.236	4.55844
2.23	4.59078
2.224	4.6366
2.218	4.57523
2.212	4.73747
2.206	4.73721
2.2	4.68566
2.194	4.66791
2.188	4.71824
2.182	4.70807
2.176	4.65545
2.17	4.75605
2.164	4.70845
2.158	4.75144
2.152	4.70752
2.146	4.69369
2.14	4.79715
2.134	4.67311
2.128	4.67707
2.122	4.72414
2.116	4.64983
2.11	4.62596
2.104	4.55508
2.098	4.6631
2.092	4.64621
2.086	4.61831
2.08	4.59047
2.074	4.64798
2.068	4.61495
2.062	4.63344
2.056	4.61102
2.05	4.6565
2.044	4.69904
2.038	4.58212
2.032	4.58162
2.026	4.54236
2.02	4.61059
2.014	4.57509
2.008	4.57788
2.002	4.59893
1.996	4.65238
1.99	4.66078
1.984	4.59492
1.978	4.66434
1.972	4.59706
1.966	4.60019
1.96	4.59356
1.954	4.59987
1.948	4.58083
1.942	4.62072
1.936	4.68782
1.93	4.65164
1.924	4.63928
1.918	4.65109
1.912	4.63176
1.906	4.71866
1.9	4.69005
1.894	4.78769
1.888	4.70922
1.882	4.73208
1.876	4.82835
1.87	4.75924
1.864	4.82676
1.858	4.88157
1.852	4.94963
1.846	4.82688
1.84	4.88242
1.834	4.93513
1.828	4.88797
1.822	5.02053
1.816	5.00866
1.81	4.9862
1.804	4.98966
1.798	5.06131
1.792	5.04875
1.786	4.99459
1.78	5.08092
1.774	5.07782
1.768	5.18813
1.762	5.20309
1.756	5.23753
1.75	5.21959
1.744	5.28206
1.738	5.28614
1.732	5.32364
1.726	5.39453
1.72	5.35633
1.714	5.42093
1.708	5.52735
1.702	5.52637
1.696	5.58495
1.69	5.59651
1.684	5.6799
1.678	5.51997
1.672	5.64184
1.666	5.79875
1.66	5.89929
1.654	5.8729
1.648	5.93534
1.642	6.20631
1.636	6.17023
1.63	6.14843
1.624	6.27421
1.618	6.28007
1.612	6.51127
1.606	6.56744
1.6	6.66089
1.594	6.66689
1.588	6.78607
1.582	6.88918
1.576	7.05246
1.57	7.14081
1.564	7.26294
1.558	7.40768
1.552	7.5314
1.546	7.68483
1.54	7.80747
1.534	7.92665
1.528	8.09811
1.522	8.23865
1.516	8.29114
1.51	8.40935
1.504	8.6002
1.498	8.64561
1.492	8.81896
1.486	8.89906
1.48	8.9527
1.474	9.03433
1.468	9.08279
1.462	9.07936
1.456	9.05714
1.45	9.0875
1.444	9.0767
1.438	9.11331
1.432	9.04428
1.426	9.05171
1.42	8.99847
1.414	8.87241
1.408	8.83935
1.402	8.789
1.396	8.64809
1.39	8.41344
1.384	8.56995
1.378	8.55729
1.372	8.56484
1.366	8.50848
1.36	8.34328
1.354	8.38512
1.348	8.27158
1.342	8.13584
1.336	8.09523
1.33	8.03178
1.324	8.00861
1.318	7.87958
1.312	7.87117
1.306	7.84314
1.3	7.77859
1.294	7.71986
1.288	7.63841
1.282	7.68772
1.276	7.64469
1.27	7.64762
1.264	7.56538
1.258	7.56519
1.252	7.56194
1.246	7.5016
1.24	7.51929
1.234	7.50375
1.228	7.48079
1.222	7.52542
1.216	7.52153
1.21	7.5111
1.204	7.51428
1.198	7.50638
1.192	7.49317
1.186	7.46874
1.18	7.4542
1.174	7.4905
1.168	7.48591
1.162	7.51785
1.156	7.56535
1.15	7.46174
1.144	7.50803
1.138	7.48933
1.132	7.45933
1.126	7.47004
1.12	7.4405
1.114	7.44782
1.108	7.47648
1.102	7.37452
1.096	7.33002
1.09	7.32351
1.084	7.36289
1.078	7.39156
1.072	7.27931
1.066	7.23552
1.06	7.17164
1.054	7.09738
1.048	7.06328
1.042	7.02881
1.036	6.95845
1.03	6.94295
1.024	6.88891
1.018	6.78373
1.012	6.72078
1.006	6.70346
1	6.70136
0.994	6.55951
0.988	6.53747
0.982	6.59065
0.976	6.56287
0.97	6.4188
0.964	6.44318
0.958	6.39824
0.952	6.36957
0.946	6.28836
0.94	6.35093
0.934	6.29332
0.928	6.32104
0.922	6.26239
0.916	6.2935
0.91	6.24254
0.904	6.23762
0.898	6.21828
0.892	6.26181
0.886	6.22913
0.88	6.21617
0.874	6.22018
0.868	6.14062
0.862	6.19038
0.856	6.5719
0.85	6.57882
0.844	6.56354
0.838	6.55763
0.832	6.5534
0.826	6.55661
0.82	6.53966
0.814	6.53613
0.808	6.5245
0.802	6.52383
0.796	6.50972
0.79	6.50135
0.784	6.4908
0.778	6.47641
0.772	6.46039
0.766	6.44703
0.76	6.43806
0.754	6.43327
0.748	6.42148
0.742	6.4023
0.736	6.38359
0.73	6.37186
0.724	6.36125
0.718	6.34683
0.712	6.33227
0.706	6.31743
0.7	6.31298
0.694	6.30437
0.688	6.30396
0.682	6.3118
0.676	6.31724
0.67	6.3204
0.664	6.32562
0.658	6.33746
0.652	6.35802
0.646	6.37781
0.64	6.38917
0.634	6.38766
0.628	6.37702
0.622	6.35633
0.616	6.3355
0.61	6.31473
0.604	6.29653
0.598	6.28686
0.592	6.28429
0.586	6.28327
0.58	6.28695
0.574	6.29365
0.568	6.3038
0.562	6.31557
0.556	6.33852
0.55	6.35685
0.544	6.37673
0.538	6.39129
0.532	6.40353
0.526	6.4127
0.52	6.42002
0.514	6.43107
0.508	6.43912
0.502	6.44833
0.496	6.46071
0.49	6.4758
0.484	6.49122
0.478	6.49404
0.472	6.49932
0.466	6.50682
0.46	6.52224
0.454	6.53806
0.448	6.54945
0.442	6.56183
0.436	6.57032
0.43	6.57879
0.424	6.59063
0.418	6.60694
0.412	6.63405
0.406	6.66636
0.4	6.71693
