Name: Siderite Fe^2+CO_3
Type: Mineral
Class: Carbonates
Particle Size: 0-45um
Sample No.: C-9A
Owner: JPL
Wavelength Range: VNIR-SWIR
Measurement: Hemispherical reflectance
X Units: Wavelength (micrometers)
Y Units: Reflectance (percent)
wavelength	value
0.4	16.46
0.403	16.81
0.406	17.21
0.409	17.62
0.412	17.78
0.415	18.47
0.418	18.64
0.421	19.27
0.424	19.61
0.427	20.25
0.43	20.76
0.433	21.22
0.436	21.85
0.439	22.07
0.442	22.76
0.445	23.05
0.448	23.56
0.451	24.08
0.454	24.31
0.457	24.88
0.46	24.88
0.463	25.63
0.466	25.75
0.469	26.54
0.472	26.6
0.475	27.12
0.478	27.41
0.481	27.64
0.484	27.98
0.487	28.33
0.49	28.96
0.493	29.19
0.496	30
0.499	30.29
0.502	30.74
0.505	31.14
0.508	31.49
0.511	32.06
0.514	32.34
0.517	33.03
0.52	33.32
0.523	34.12
0.526	34.52
0.529	34.98
0.532	35.61
0.535	35.83
0.538	36.7
0.541	36.93
0.544	37.61
0.547	37.96
0.55	38.47
0.553	39.1
0.556	39.27
0.559	39.79
0.562	40.54
0.565	40.7
0.568	41.28
0.571	41.45
0.574	41.91
0.577	42.14
0.58	42.53
0.583	42.88
0.586	43.17
0.589	43.57
0.592	43.69
0.595	44.02
0.598	44.25
0.601	44.77
0.604	44.94
0.607	45.06
0.61	45.4
0.613	45.46
0.616	45.91
0.619	45.91
0.622	46.26
0.625	46.37
0.628	46.55
0.631	46.89
0.634	46.78
0.637	47.23
0.64	47.29
0.643	47.52
0.646	47.63
0.649	47.63
0.652	48.03
0.655	48.03
0.658	48.44
0.661	48.44
0.664	48.55
0.667	48.78
0.67	48.84
0.673	49.18
0.676	49.18
0.679	49.41
0.682	49.52
0.685	49.58
0.688	49.87
0.691	49.7
0.694	50.27
0.697	49.98
0.7	49.87
0.703	50.27
0.706	50.16
0.709	50.5
0.712	50.27
0.715	50.61
0.718	50.55
0.721	50.72
0.724	50.78
0.727	50.61
0.73	50.89
0.733	50.72
0.736	50.89
0.739	50.89
0.742	50.84
0.745	50.95
0.748	50.78
0.751	51.01
0.754	50.72
0.757	50.84
0.76	50.66
0.763	50.61
0.766	50.72
0.769	50.44
0.772	50.61
0.775	50.27
0.778	50.39
0.781	50.21
0.784	50.16
0.787	50.21
0.79	49.93
0.793	50.04
0.796	49.58
0.799	49.75
0.808	49
0.82	48.26
0.832	47.18
0.844	46.2
0.856	45.06
0.868	43.8
0.88	42.42
0.892	41.22
0.904	39.9
0.916	38.65
0.928	37.44
0.94	36.3
0.952	35.21
0.964	34.29
0.976	33.49
0.988	32.92
1	32.34
1.012	32.06
1.024	31.78
1.036	31.72
1.048	31.6
1.06	31.72
1.072	31.83
1.084	32.06
1.096	32.34
1.108	32.57
1.12	32.57
1.132	32.69
1.144	32.69
1.156	32.8
1.168	32.85
1.18	32.95
1.192	32.94
1.204	32.94
1.216	33
1.228	33.06
1.24	33.34
1.252	33.57
1.264	33.79
1.276	34.18
1.288	34.52
1.3	35.08
1.312	35.7
1.324	36.26
1.336	37.11
1.348	37.96
1.36	38.76
1.372	39.61
1.384	40.58
1.396	41.38
1.408	42.41
1.42	43.34
1.432	44.32
1.444	45.3
1.456	46.11
1.468	46.91
1.48	47.88
1.492	48.4
1.504	49.36
1.516	49.88
1.528	50.56
1.54	51.03
1.552	51.53
1.564	51.82
1.576	52.17
1.588	52.57
1.6	52.79
1.612	52.95
1.624	53.22
1.636	53.27
1.648	53.54
1.66	53.58
1.672	53.75
1.684	53.67
1.696	53.78
1.708	53.78
1.72	53.83
1.732	54
1.744	53.83
1.756	53.95
1.768	53.89
1.78	53.89
1.792	53.89
1.804	53.99
1.816	54.04
1.828	53.93
1.84	53.88
1.852	53.84
1.864	53.77
1.876	53.64
1.888	53.68
1.9	53.51
1.912	53.44
1.924	53.59
1.936	53.41
1.948	53.5
1.96	53.69
1.972	53.66
1.984	53.74
1.996	53.75
2.008	53.76
2.02	53.85
2.032	53.9
2.044	53.76
2.056	53.88
2.068	53.81
2.08	53.91
2.092	54.02
2.104	53.95
2.116	53.99
2.128	53.88
2.14	53.86
2.152	53.66
2.164	53.65
2.176	53.57
2.188	53.39
2.2	53.3
2.212	53.31
2.224	53.07
2.236	53.14
2.248	52.89
2.26	52.73
2.272	52.72
2.284	52.54
2.296	52.5
2.308	52.47
2.32	52.57
2.332	52.5
2.344	52.62
2.356	52.66
2.368	52.71
2.38	52.8
2.392	52.92
2.404	52.74
2.416	52.73
2.428	52.55
2.44	52.32
2.452	51.92
2.464	51.35
2.476	50.84
2.488	50.38
2.5	49.87
