Name: White siltstone
Type: Rocks
Class: Sedimentary
Subclass: Arenaceous
Particle Size: see additional information
Sample No.: fge5
Owner: University of NSW
Origin: Quarry exposure of Fowlers Gap Siltstone, Fowlers Gap, western New South Wales, Australia; Hewson(1998) PhD thesis
Description: Fine grained quartz siltstone in a kaolinite, chlorite, muscovite/illite matrix. Some carbonate and gypsum
Measurement: Directional hemispherical reflectance
X Units: Wavelength (micrometers)
Y Units: Reflectance (percent)
wavelength	value
14.983	1.2984
14.728	1.0376
14.481	1.4452
14.242	1.6132
14.011	2.7169
13.788	3.2619
13.571	3.6499
13.361	3.4541
13.158	3.7097
12.96	4.0128
12.769	4.2754
12.583	3.7363
12.402	3.3165
12.227	2.9609
12.056	3.4534
11.89	4.0251
11.729	4.855
11.572	5.2703
11.419	5.3752
11.27	5.4465
11.125	5.0743
10.983	4.4354
10.846	4.1632
10.711	4.3659
10.58	4.8963
10.452	5.6217
10.327	5.7528
10.205	5.7921
10.086	5.9661
9.9695	6.7815
9.8558	7.1162
9.7447	7.7824
9.636	10.012
9.5297	10.497
9.4257	10.465
9.324	11.153
9.2245	11.558
9.127	11.505
9.0316	10.328
8.9382	10.725
8.8467	11.424
8.757	11.13
8.6692	10.083
8.583	10.121
8.4986	10.702
8.4158	10.825
8.3347	11.405
8.255	12.318
8.1769	12.612
8.1002	10.366
8.025	8.9608
7.9512	7.8015
7.8786	6.5945
7.8075	5.9697
7.7375	6.0567
7.6689	5.9714
7.6014	5.6948
7.5351	5.7188
7.47	5.6597
7.4059	5.6007
7.343	5.544
7.2811	5.5642
7.2203	5.5944
7.1604	5.2597
7.1016	4.9644
7.0437	4.6904
6.9867	4.6258
6.9307	4.865
6.8755	5.2024
6.8213	5.6272
6.7678	5.9148
6.7152	5.981
6.6634	6.3681
6.6124	6.5556
6.5622	6.5429
6.5128	7.1635
6.464	7.7557
6.416	7.5933
6.3687	7.0933
6.3221	6.3814
6.2762	5.6559
6.231	4.9317
6.1863	4.3633
6.1424	4.3872
6.099	4.5986
6.0563	4.734
6.0141	4.9827
5.9725	5.1003
5.9315	5.3628
5.8911	6.6734
5.8512	8.3298
5.8118	9.5674
5.773	10.561
5.7347	11.38
5.6969	11.779
5.6596	11.32
5.6227	10.415
5.5864	10.102
5.5505	10.303
5.5151	11.041
5.4801	11.727
5.4455	12.415
5.4114	11.697
5.3778	9.8722
5.3445	9.2325
5.3116	9.6524
5.2792	10.5
5.2471	12.185
5.2154	14.261
5.1842	14.914
5.1532	15.042
5.1227	15.222
5.0925	15.194
5.0627	14.752
5.0332	14.823
5.004	14.917
4.9752	15.947
4.9467	17.692
4.9186	18.804
4.8907	21.457
4.8632	23.145
4.836	23.937
4.809	24.401
4.7824	24.518
4.7561	24.175
4.7301	23.811
4.7043	23.923
4.6788	23.71
4.6536	24.245
4.6287	24.592
4.604	24.586
4.5796	24.245
4.5555	23.862
4.5316	23.685
4.508	23.367
4.4846	23.179
4.4614	23.369
4.4385	23.884
4.4158	24.595
4.3934	25.482
4.3711	26.362
4.3491	27.244
4.3273	27.987
4.3058	28.674
4.2844	29.373
4.2633	30.041
4.2424	30.792
4.2216	31.531
4.2011	32.214
4.1808	32.909
4.1606	33.72
4.1407	34.417
4.1209	35.132
4.1014	35.768
4.082	36.468
4.0628	36.991
4.0438	37.483
4.025	37.766
4.0063	37.966
3.9878	38.077
3.9695	38.35
3.9513	38.766
3.9333	39.111
3.9155	39.274
3.8979	39.269
3.8804	39.199
3.863	39.115
3.8458	39.071
3.8288	39.019
3.8119	38.93
3.7951	38.704
3.7785	38.393
3.7621	37.953
3.7458	37.539
3.7296	37.149
3.7136	36.694
3.6977	36.146
3.6819	35.825
3.6663	35.489
3.6508	34.887
3.6355	34.3
3.6202	33.58
3.6051	32.808
3.5901	32.006
3.5753	31.088
3.5605	30.168
3.5459	29.394
3.5314	28.855
3.5171	28.336
3.5028	27.681
3.4887	27.486
3.4746	26.872
3.4607	26.311
3.4469	25.521
3.4332	24.637
3.4196	23.552
3.4061	22.824
3.3928	22.131
3.3795	21.367
3.3663	20.584
3.3533	19.886
3.3403	19.219
3.3274	18.543
3.3147	17.92
3.302	17.35
3.2894	16.641
3.277	16.195
3.2646	15.698
3.2523	15.245
3.2401	14.793
3.228	14.273
3.216	13.735
3.204	13.305
3.1922	12.775
3.1805	12.352
3.1688	11.833
3.1572	11.444
3.1457	10.942
3.1343	10.528
3.123	10.164
3.1117	9.7722
3.1006	9.5269
3.0895	9.068
3.0785	8.8107
3.0675	8.7082
3.0567	8.5732
3.0459	8.3088
3.0352	8.1353
3.0246	7.9752
3.014	7.8118
3.0036	7.709
2.9932	7.5942
2.9828	7.5896
2.9726	7.4427
2.9624	7.4051
2.9523	7.3057
2.9422	7.2559
2.9322	7.3262
2.9223	7.4405
2.9124	7.4273
2.9027	7.5536
2.8929	7.5919
2.8833	7.7172
2.8737	7.8489
2.8642	8.0803
2.8547	8.3743
2.8453	8.5451
2.836	8.6026
2.8267	8.7077
2.8175	8.7617
2.8083	8.9403
2.7992	8.8756
2.7902	8.1407
2.7812	7.0042
2.7723	5.862
2.7634	4.1902
2.7546	5.1062
2.7458	5.9401
2.7371	5.8754
2.7285	7.5858
2.7199	9.6365
2.7114	9.8299
2.7029	7.5541
2.6945	15.308
2.6861	23.096
2.6778	27.704
2.6695	30.532
2.6613	33.072
2.6531	34.704
2.645	35.833
2.6369	36.71
2.6289	37.246
2.6209	37.568
2.613	37.992
2.6051	38.023
2.5973	38.412
2.5895	38.571
2.5817	38.683
2.5741	38.63
2.5664	38.845
2.5588	39.185
2.5513	39.224
2.5437	39.216
2.5363	39.487
2.5289	39.584
2.5215	39.76
2.5141	39.647
2.5068	39.656
2.4996	39.516
2.4924	39.464
2.4852	39.408
2.4781	39.478
2.471	39.539
2.464	39.545
2.4569	39.639
2.45	39.693
2.4431	39.864
2.4362	40.324
2.4293	40.753
2.4225	41.264
2.4157	41.85
2.409	42.538
2.4023	43.077
2.3956	43.606
2.389	43.947
2.3824	44.248
2.3759	44.787
2.3694	45.153
2.3629	45.176
2.3564	44.989
2.35	45.36
2.3436	45.932
2.3373	46.857
2.331	47.575
2.3247	48.378
2.3185	48.911
2.3123	49.458
2.3061	50.367
2.3	50.903
2.2939	51.27
2.2878	51.5
2.2818	51.718
2.2757	51.778
2.2698	51.948
2.2638	51.771
2.2579	51.629
2.252	51.23
2.2462	50.836
2.2403	50.148
2.2345	49.289
2.2288	47.788
2.2231	46.434
2.2173	45.578
2.2117	44.268
2.206	44.968
2.2004	47.492
2.1948	48.66
2.1893	49.848
2.1837	50.829
2.1782	51.158
2.1727	51.182
2.1673	51.196
2.1619	51.222
2.1565	51.486
2.1511	51.896
2.1458	52.62
2.1404	53.066
2.1352	53.216
2.1299	53.184
2.1247	53.334
2.1194	53.418
2.1143	53.425
2.1091	53.541
2.104	53.823
2.0988	53.826
2.0938	53.981
2.0887	54.176
2.0837	54.043
