Name: Pyrophyllite Al_2Si_4O_10(OH)_2
Type: Mineral
Class: Silicates
Subclass: Phyllosilicates
Particle Size: 125-500um
Sample No.: PS-7A
Owner: JPL
Origin: USA, California
Measurement: Hemispherical reflectance
X Units: Wavelength (micrometers)
Y Units: Reflectance (percent)
wavelength	value
15.3853	3.59258
15.1161	1.74277
14.8563	1.9598
14.6052	1.73372
14.3624	2.15308
14.1276	2.40725
13.9004	3.03745
13.6803	3.02672
13.4671	3.33882
13.2604	3.7559
13.06	4.07904
12.8656	4.56334
12.6769	5.02612
12.4936	5.14886
12.3155	4.73816
12.1425	4.61496
11.9742	5.54044
11.8106	4.53197
11.6513	4.60396
11.4963	5.47438
11.3454	6.22668
11.1983	7.01743
11.0551	7.50965
10.9154	8.20019
10.7793	8.82803
10.6465	10.3585
10.5169	14.4877
10.3904	10.058
10.267	6.92601
10.1464	8.83585
10.0287	10.3886
9.91364	11.7419
9.80119	13.107
9.69128	15.0692
9.5838	19.4764
9.47867	26.7102
9.37583	32.4531
9.27519	37.9352
9.17669	40.4801
9.08027	39.7511
8.98585	24.3266
8.89337	37.0081
8.80277	40.5617
8.714	40.5832
8.62701	38.5517
8.54174	34.7934
8.45813	29.0352
8.37614	23.9588
8.29573	19.8577
8.21685	12.6996
8.13946	7.23398
8.0635	4.16552
7.98896	2.47456
7.91578	1.49528
7.84392	0.819338
7.77337	0.591178
7.70406	0.504088
7.63598	0.594521
7.5691	0.59122
7.50338	0.632911
7.43879	0.941425
7.37529	1.13917
7.31288	1.41276
7.25152	1.70595
7.19117	1.8903
7.13182	2.08104
7.07344	2.45672
7.01601	2.5904
6.95951	2.93013
6.90391	3.04098
6.84918	3.26785
6.79532	3.63846
6.74231	4.06436
6.69011	4.40065
6.63871	4.89219
6.5881	5.02597
6.53825	5.15702
6.48915	5.55481
6.44079	5.78181
6.39314	5.92173
6.34618	6.17868
6.29992	6.50335
6.25432	6.80617
6.20938	6.95937
6.16508	7.02692
6.12141	7.27305
6.07835	7.56891
6.0359	8.08742
5.99403	8.48068
5.95274	7.98066
5.91201	7.58176
5.87184	7.501
5.83221	6.80637
5.79311	5.81893
5.75453	5.73657
5.71646	5.72583
5.6789	6.00808
5.64182	6.03182
5.60522	6.03633
5.5691	5.8447
5.53344	5.83314
5.49823	5.92831
5.46347	6.08269
5.42914	5.78684
5.39525	5.43959
5.36177	4.80551
5.32871	4.18992
5.29605	4.03556
5.26379	4.57853
5.23192	5.63526
5.20044	6.13035
5.16933	6.7888
5.13859	7.45502
5.10821	7.42102
5.07819	7.42619
5.04852	7.36556
5.0192	7.78204
4.99021	8.40498
4.96156	10.108
4.93324	12.6538
4.90524	14.8531
4.87755	17.8275
4.85017	20.5997
4.8231	21.5599
4.79633	22.3926
4.76986	22.6344
4.74367	24.0514
4.71777	24.7185
4.69216	25.8262
4.66682	27.5211
4.64175	29.8025
4.61695	31.3886
4.59241	32.071
4.56814	31.2599
4.54411	31.8696
4.52034	31.9118
4.49682	32.4179
4.47354	33.2145
4.4505	35.7382
4.4277	38.0031
4.40513	38.4012
4.38278	39.448
4.36067	40.9965
4.33877	41.9375
4.3171	42.3433
4.29564	42.2268
4.27439	43.2068
4.25335	45.3483
4.23252	46.5624
4.21189	48.1449
4.19146	48.8189
4.17123	49.2081
4.15119	49.6309
4.13134	49.8627
4.11168	50.2328
4.09221	50.4665
4.07292	50.6962
4.05382	50.9669
4.03489	51.2828
4.01614	51.4491
3.99756	51.7778
3.97915	51.953
3.96091	51.9837
3.94284	52.1418
3.92493	52.1257
3.90718	52.149
3.8896	52.124
3.87217	51.9684
3.8549	51.7576
3.83777	51.5163
3.82081	51.1988
3.80399	50.8314
3.78731	50.4641
3.77079	50.3374
3.7544	50.1983
3.73816	49.9765
3.72206	49.5227
3.7061	48.2728
3.69027	40.3238
3.67458	42.5016
3.65902	44.8485
3.64359	47.6863
3.6283	49.1746
3.61312	49.5595
3.59808	49.1917
3.58316	48.6884
3.56836	48.6632
3.55369	48.9257
3.53914	48.6934
3.5247	48.4522
3.51038	47.7145
3.49618	47.6292
3.48209	47.5925
3.46812	47.5751
3.45425	47.3306
3.4405	46.5911
3.42686	45.7005
3.41332	45.0789
3.39989	45.2028
3.38657	45.0053
3.37335	44.5925
3.36023	44.5095
3.34721	44.2511
3.3343	43.8677
3.32148	43.6237
3.30876	43.1072
3.29614	42.4273
3.28362	42.0305
3.27119	42.0957
3.25885	41.8526
3.24661	41.3714
3.23446	40.8617
3.22239	40.5911
3.21042	40.2643
3.19854	39.6524
3.18674	39.1776
3.17504	37.936
3.16341	37.4838
3.15187	37.6036
3.14042	37.5419
3.12905	37.3708
3.11776	36.5384
3.10655	35.4022
3.09542	34.9983
3.08437	34.4797
3.0734	33.9241
3.06251	33.3859
3.0517	33.0207
3.04096	32.7522
3.03029	31.8254
3.0197	31.0776
3.00919	29.1373
2.99875	28.5159
2.98838	27.5665
2.97808	26.0587
2.96785	26.7359
2.95769	28.3392
2.9476	30.1501
2.93758	29.7592
2.92763	27.2752
2.91775	25.7074
2.90793	27.1065
2.89817	26.0801
2.88849	24.502
2.87886	24.7113
2.8693	21.5761
2.85981	22.5234
2.85038	22.8237
2.841	23.8571
2.83169	26.0175
2.82245	26.6114
2.81326	25.336
2.80413	24.4932
2.79506	23.9543
2.78605	20.775
2.77709	21.7277
2.7682	17.9549
2.75936	15.5497
2.75057	13.9194
2.74185	9.32563
2.73318	8.94559
2.72456	7.76679
2.71599	5.6091
2.70748	7.32436
2.69903	10.7526
2.69062	15.8303
2.68227	20.3831
2.67397	23.439
2.66572	26.6496
2.65753	28.4913
2.64938	30.2025
2.64128	29.9715
2.63323	30.2798
2.62523	30.0035
2.61728	27.8376
2.60938	24.1076
2.60152	24.4892
2.59371	26.6546
2.58595	29.9058
2.57824	32.8226
2.57057	30.901
2.56294	33.642
2.55536	33.4652
2.54783	31.1175
2.54034	34.6932
2.53289	35.1598
2.52549	33.701
2.51813	31.068
2.51082	29.5725
2.50354	29.9625
2.49631	30.8231
2.48912	31.4641
2.48197	32.2091
2.47486	35.4353
2.46779	35.8049
2.46077	36.1538
2.45378	35.9939
2.44683	36.5186
2.43992	36.7113
2.43305	35.3639
2.42622	35.7557
2.41943	37.3437
2.41267	37.6327
2.40595	37.4375
2.39928	37.5744
2.39263	36.5057
2.38603	37.7149
2.37946	40.7928
2.37292	43.4705
2.36642	42.2268
2.35996	41.2286
2.35353	40.6265
2.34714	39.9365
2.34078	42.6018
2.33446	42.5847
2.32817	38.7806
2.32191	35.0379
2.31569	35.9474
2.3095	39.122
2.30335	41.3146
2.29722	43.1164
2.29113	44.129
2.28507	45.7554
2.27905	49.0439
2.27305	52.0564
2.26709	53.7768
2.26116	55.3521
2.25526	56.7598
2.24939	58.1501
2.24355	59.3817
2.23774	60.397
2.23196	60.7988
2.22621	59.3215
2.22049	55.8857
2.21479	56.6827
2.20913	55.3412
2.2035	57.1376
2.19789	57.7686
2.19232	57.1561
2.18677	54.5048
2.18125	48.2714
2.17576	38.1976
2.17029	26.9753
2.16486	25.4244
2.15945	36.133
2.15406	44.4869
2.14871	52.7013
2.14338	58.1462
2.13808	60.0844
2.1328	61.983
2.12755	64.1221
2.12232	67.7608
2.11712	70.024
2.11195	72.59
2.1068	74.9199
2.10168	75.1332
2.09658	74.2398
2.0915	72.1342
2.08645	68.7641
2.08143	65.9433
2.07643	68.6087
2.07145	69.1835
2.06649	68.9168
2.06156	70.0301
2.05666	73.0953
2.05177	77.0442
2.04691	78.7981
2.04208	79.2517
2.03726	79.3074
2.03247	79.2897
2.0277	79.4195
2.02295	79.3198
2.01823	79.3994
2.01353	79.7364
2.00885	80.0563
2.00419	80.0941
