Name: Magnesiochromite MgCr_2O_4
Type: Mineral
Class: Oxides
Particle Size: 125-500um
Sample No.: O-8A
Owner: JPL
Origin: Canada, Quebec, Coleraine Township.
Measurement: Hemispherical reflectance
X Units: Wavelength (micrometers)
Y Units: Reflectance (percent)
wavelength	value
2.5	3.49582
2.494	3.4864
2.488	3.73473
2.482	3.63704
2.476	3.59729
2.47	3.65444
2.464	3.59616
2.458	3.68208
2.452	3.64899
2.446	3.74473
2.44	3.67928
2.434	3.64162
2.428	3.7975
2.422	3.73682
2.416	3.76999
2.41	3.77483
2.404	3.71301
2.398	3.71814
2.392	3.81035
2.386	3.78818
2.38	3.80362
2.374	3.77759
2.368	3.74007
2.362	3.76366
2.356	3.73958
2.35	3.75408
2.344	3.76341
2.338	3.77988
2.332	3.76263
2.326	3.72102
2.32	3.72264
2.314	3.70734
2.308	3.77104
2.302	3.71441
2.296	3.74092
2.29	3.74727
2.284	3.76952
2.278	3.82729
2.272	3.77578
2.266	3.80845
2.26	3.80201
2.254	3.83
2.248	3.78797
2.242	3.81692
2.236	3.82287
2.23	3.86848
2.224	3.83971
2.218	3.83625
2.212	3.99448
2.206	3.82288
2.2	3.94697
2.194	3.9932
2.188	3.87009
2.182	3.98204
2.176	3.92723
2.17	3.8571
2.164	3.93571
2.158	3.97324
2.152	3.93061
2.146	3.95014
2.14	3.94552
2.134	3.86726
2.128	3.90989
2.122	3.8977
2.116	3.91395
2.11	3.90457
2.104	3.88554
2.098	3.81384
2.092	3.86258
2.086	3.83543
2.08	3.85664
2.074	3.82492
2.068	3.84727
2.062	3.87129
2.056	3.86725
2.05	3.83302
2.044	3.80408
2.038	3.80397
2.032	3.78672
2.026	3.86312
2.02	3.78033
2.014	3.77397
2.008	3.7167
2.002	3.86011
1.996	3.77397
1.99	3.71856
1.984	3.75218
1.978	3.7772
1.972	3.77532
1.966	3.76926
1.96	3.84025
1.954	3.90238
1.948	3.77687
1.942	3.78086
1.936	3.74399
1.93	3.74892
1.924	3.83384
1.918	3.86514
1.912	3.81378
1.906	3.89092
1.9	3.90413
1.894	3.74256
1.888	3.83364
1.882	3.90482
1.876	3.90082
1.87	3.87561
1.864	3.94726
1.858	3.90484
1.852	3.87685
1.846	3.93158
1.84	3.91173
1.834	3.90995
1.828	3.95727
1.822	4.01025
1.816	3.93425
1.81	3.97264
1.804	3.97819
1.798	3.98442
1.792	4.01263
1.786	3.99324
1.78	4.02685
1.774	4.03914
1.768	4.03802
1.762	4.04917
1.756	4.09273
1.75	4.06278
1.744	4.16642
1.738	4.11551
1.732	4.09247
1.726	4.16218
1.72	4.16583
1.714	4.15623
1.708	4.20836
1.702	4.29413
1.696	4.19503
1.69	4.2355
1.684	4.21682
1.678	4.33936
1.672	4.32683
1.666	4.31817
1.66	4.38752
1.654	4.37339
1.648	4.24135
1.642	4.45547
1.636	4.43463
1.63	4.3236
1.624	4.43315
1.618	4.45547
1.612	4.42493
1.606	4.57493
1.6	4.49421
1.594	4.53392
1.588	4.54342
1.582	4.61587
1.576	4.51298
1.57	4.67375
1.564	4.67282
1.558	4.66342
1.552	4.72064
1.546	4.70473
1.54	4.70965
1.534	4.77737
1.528	4.87081
1.522	4.80887
1.516	4.87701
1.51	4.89263
1.504	4.90465
1.498	4.94568
1.492	4.98111
1.486	4.97059
1.48	4.92721
1.474	5.01611
1.468	5.01123
1.462	5.03867
1.456	5.05649
1.45	5.02511
1.444	5.02666
1.438	4.9927
1.432	5.01411
1.426	5.02511
1.42	5.03275
1.414	4.98112
1.408	4.9596
1.402	4.97762
1.396	4.96807
1.39	4.83371
1.384	4.82718
1.378	4.97179
1.372	4.96427
1.366	4.89212
1.36	4.96663
1.354	4.92981
1.348	4.9029
1.342	4.89818
1.336	4.97674
1.33	4.93437
1.324	4.8309
1.318	4.80773
1.312	4.8302
1.306	4.80556
1.3	4.82183
1.294	4.7629
1.288	4.78459
1.282	4.81316
1.276	4.82165
1.27	4.80781
1.264	4.81534
1.258	4.78243
1.252	4.87383
1.246	4.80313
1.24	4.84201
1.234	4.81668
1.228	4.79262
1.222	4.81185
1.216	4.86958
1.21	4.82233
1.204	4.81742
1.198	4.84285
1.192	4.85762
1.186	4.87425
1.18	4.90296
1.174	4.83475
1.168	4.85097
1.162	4.92005
1.156	4.85729
1.15	4.87116
1.144	4.8743
1.138	4.94161
1.132	4.88964
1.126	4.89841
1.12	4.83436
1.114	4.89622
1.108	4.8529
1.102	4.90452
1.096	4.90048
1.09	4.83521
1.084	4.92603
1.078	4.84899
1.072	4.94366
1.066	4.97408
1.06	4.89301
1.054	4.90452
1.048	4.81113
1.042	4.83204
1.036	4.83997
1.03	4.91953
1.024	4.85614
1.018	4.84842
1.012	4.81699
1.006	4.7353
1	4.76819
0.994	4.79531
0.988	4.7529
0.982	4.75176
0.976	4.81855
0.97	4.72364
0.964	4.74589
0.958	4.76275
0.952	4.78585
0.946	4.78101
0.94	4.79009
0.934	4.67212
0.928	4.7256
0.922	4.74408
0.916	4.77399
0.91	4.77921
0.904	4.74655
0.898	4.74776
0.892	4.78276
0.886	4.75049
0.88	4.73463
0.874	4.75536
0.868	4.77712
0.862	4.76599
0.856	5.07473
0.85	5.07789
0.844	5.07542
0.838	5.07492
0.832	5.07506
0.826	5.07678
0.82	5.07408
0.814	5.07635
0.808	5.08096
0.802	5.07526
0.796	5.07883
0.79	5.06798
0.784	5.0716
0.778	5.06647
0.772	5.06033
0.766	5.06243
0.76	5.06331
0.754	5.05462
0.748	5.05843
0.742	5.05221
0.736	5.05292
0.73	5.05112
0.724	5.04824
0.718	5.04946
0.712	5.04695
0.706	5.04824
0.7	5.04884
0.694	5.04992
0.688	5.05839
0.682	5.0665
0.676	5.0743
0.67	5.08122
0.664	5.09168
0.658	5.10711
0.652	5.12302
0.646	5.1388
0.64	5.15233
0.634	5.16296
0.628	5.16493
0.622	5.16564
0.616	5.16165
0.61	5.1594
0.604	5.15955
0.598	5.16277
0.592	5.17243
0.586	5.17997
0.58	5.18966
0.574	5.20318
0.568	5.21385
0.562	5.23283
0.556	5.25471
0.55	5.27395
0.544	5.29692
0.538	5.31832
0.532	5.33802
0.526	5.35948
0.52	5.37808
0.514	5.39558
0.508	5.41526
0.502	5.43343
0.496	5.45341
0.49	5.47708
0.484	5.49212
0.478	5.5026
0.472	5.51495
0.466	5.53001
0.46	5.55502
0.454	5.57735
0.448	5.59987
0.442	5.62582
0.436	5.64217
0.43	5.66258
0.424	5.68626
0.418	5.71193
0.412	5.7443
0.406	5.78568
0.4	5.83853
