Name: Vermiculite (Mg,Fe^2+,Al)_3(Al,Si)_4O_10(OH)_2.4H_2O
Type: Mineral
Class: Silicates
Subclass: Phyllosilicates
Particle Size: 0-45um
Sample No.: PS-18A
Owner: JPL
Wavelength Range: VNIR-SWIR
Origin: USA, Texas, Llano County, Llano
Measurement: Hemispherical reflectance
X Units: Wavelength (micrometers)
Y Units: Reflectance (percent)
wavelength	value
0.4	54.86
0.403	55.03
0.406	55.84
0.409	55.89
0.412	56.52
0.415	56.92
0.418	57.03
0.421	57.54
0.424	57.66
0.427	58.17
0.43	58.46
0.433	58.86
0.436	59.37
0.439	59.37
0.442	60.11
0.445	60.17
0.448	60.74
0.451	60.91
0.454	61.2
0.457	61.54
0.46	61.55
0.463	62.13
0.466	62.13
0.469	62.42
0.472	62.53
0.475	62.94
0.478	63.34
0.481	63.46
0.484	63.92
0.487	63.7
0.49	64.39
0.493	64.39
0.496	64.62
0.499	65.31
0.502	65.08
0.505	65.76
0.508	65.82
0.511	66.17
0.514	66.63
0.517	66.4
0.52	67.08
0.523	66.97
0.526	67.36
0.529	67.42
0.532	67.53
0.535	67.99
0.538	67.94
0.541	68.28
0.544	68.34
0.547	68.51
0.55	68.9
0.553	68.85
0.556	69.25
0.559	69.31
0.562	69.59
0.565	69.82
0.568	69.59
0.571	69.94
0.574	69.76
0.577	69.82
0.58	69.94
0.583	69.94
0.586	70.28
0.589	70.22
0.592	70.4
0.595	70.56
0.598	70.4
0.601	70.9
0.604	70.79
0.607	70.85
0.61	71.13
0.613	70.85
0.616	71.19
0.619	70.96
0.622	71.02
0.625	71.31
0.628	71.13
0.631	71.54
0.634	71.36
0.637	71.54
0.64	71.54
0.643	71.48
0.646	71.94
0.649	71.82
0.652	71.99
0.655	72.16
0.658	72.05
0.661	72.39
0.664	72.27
0.667	72.39
0.67	72.5
0.673	72.5
0.676	72.79
0.679	72.67
0.682	72.9
0.685	72.96
0.688	72.73
0.691	73.19
0.694	72.96
0.697	73.13
0.7	73.13
0.703	73.08
0.706	73.19
0.709	73.48
0.712	73.31
0.715	73.71
0.718	73.54
0.721	73.87
0.724	73.71
0.727	73.93
0.73	73.98
0.733	73.87
0.736	74.16
0.739	73.87
0.742	74.27
0.745	74.04
0.748	74.16
0.751	74.5
0.754	74.16
0.757	74.5
0.76	74.44
0.763	74.56
0.766	74.67
0.769	74.44
0.772	74.9
0.775	74.5
0.778	74.85
0.781	74.85
0.784	74.96
0.787	74.96
0.79	74.85
0.793	75.25
0.796	75.02
0.799	75.41
0.808	75.53
0.82	75.7
0.832	75.76
0.844	75.93
0.856	76.04
0.868	76.04
0.88	76.22
0.892	76.16
0.904	76.1
0.916	76.16
0.928	76.33
0.94	76.33
0.952	76.27
0.964	76.44
0.976	76.56
0.988	76.73
1	76.85
1.012	76.96
1.024	77.07
1.036	77.07
1.048	77.18
1.06	77.18
1.072	77.3
1.084	77.35
1.096	77.58
1.108	77.47
1.12	77.58
1.132	77.58
1.144	77.81
1.156	77.69
1.168	77.78
1.18	77.65
1.192	77.81
1.204	78.02
1.216	77.96
1.228	77.96
1.24	78.02
1.252	78.08
1.264	78
1.276	77.92
1.288	77.96
1.3	78.17
1.312	78.21
1.324	78.02
1.336	78.11
1.348	77.92
1.36	77.3
1.372	76.66
1.384	70.12
1.396	70.41
1.408	73.95
1.42	74.76
1.432	74.84
1.444	75.15
1.456	75.49
1.468	75.66
1.48	76.01
1.492	76.28
1.504	76.69
1.516	76.8
1.528	77.03
1.54	77.2
1.552	77.32
1.564	77.54
1.576	77.54
1.588	77.71
1.6	77.65
1.612	77.76
1.624	77.67
1.636	77.66
1.648	77.47
1.66	77.56
1.672	77.49
1.684	77.47
1.696	77.46
1.708	77.27
1.72	77.27
1.732	77.16
1.744	77.16
1.756	77.1
1.768	76.81
1.78	76.87
1.792	76.81
1.804	76.79
1.816	76.6
1.828	76.64
1.84	76.4
1.852	76.11
1.864	75.47
1.876	74.09
1.888	71.69
1.9	68.62
1.912	66.29
1.924	65.36
1.936	65.52
1.948	66.07
1.96	66.59
1.972	67.05
1.984	67.62
1.996	68.47
2.008	69.18
2.02	69.82
2.032	70.44
2.044	71
2.056	71.54
2.068	71.67
2.08	71.98
2.092	71.72
2.104	71.81
2.116	72.05
2.128	72.22
2.14	72.53
2.152	72.96
2.164	73.07
2.176	73.06
2.188	72.88
2.2	72.44
2.212	71.84
2.224	70.89
2.236	69.49
2.248	68.34
2.26	67.04
2.272	65.8
2.284	64.21
2.296	62.24
2.308	60.53
2.32	59.38
2.332	59.96
2.344	61.67
2.356	63.09
2.368	63.23
2.38	62.44
2.392	61.44
2.404	60.88
2.416	60.26
2.428	59.41
2.44	58.84
2.452	58.06
2.464	57.1
2.476	56.05
2.488	54.76
2.5	53.81
