Name: Microcline (Feldspar) (K,Na)AlSi_3O_8
Type: Mineral
Class: Silicates
Subclass: Tectosilicates
Particle Size: 0-45um
Sample No.: TS-17A
Owner: JPL
Origin: Unknown.
Measurement: Hemispherical reflectance
X Units: Wavelength (micrometers)
Y Units: Reflectance (percent)
wavelength	value
2.5	73.0488
2.494	73.0125
2.488	72.9419
2.482	73.0018
2.476	73.1346
2.47	73.0956
2.464	73.3057
2.458	73.4505
2.452	73.3476
2.446	73.4119
2.44	73.4123
2.434	73.5823
2.428	73.7621
2.422	74.0357
2.416	74.2156
2.41	74.6002
2.404	74.9454
2.398	74.9981
2.392	75.1464
2.386	75.3772
2.38	75.3844
2.374	75.5471
2.368	75.6139
2.362	75.6345
2.356	75.6291
2.35	75.5223
2.344	75.4838
2.338	75.5968
2.332	75.6866
2.326	75.875
2.32	76.0341
2.314	76.3969
2.308	76.5862
2.302	76.737
2.296	76.9116
2.29	77.041
2.284	77.0492
2.278	77.154
2.272	77.0962
2.266	77.0766
2.26	77.0816
2.254	77.0059
2.248	76.9342
2.242	76.9576
2.236	76.8938
2.23	76.8657
2.224	76.6463
2.218	76.3129
2.212	75.9223
2.206	75.3345
2.2	75.1799
2.194	75.3251
2.188	75.9133
2.182	76.6794
2.176	77.3415
2.17	77.9375
2.164	78.4145
2.158	78.7283
2.152	79.0413
2.146	79.1653
2.14	79.2398
2.134	79.2359
2.128	79.0825
2.122	78.8659
2.116	78.5563
2.11	78.3445
2.104	78.1877
2.098	78.0616
2.092	78.2238
2.086	78.3171
2.08	78.3831
2.074	78.4547
2.068	78.4659
2.062	78.5548
2.056	78.6493
2.05	78.6249
2.044	78.6677
2.038	78.7062
2.032	78.749
2.026	78.6649
2.02	78.6723
2.014	78.5533
2.008	78.523
2.002	78.4731
1.996	78.3825
1.99	78.2643
1.984	78.166
1.978	77.9509
1.972	77.8972
1.966	77.8656
1.96	77.8151
1.954	77.662
1.948	77.5869
1.942	77.5734
1.936	77.5752
1.93	77.5677
1.924	77.5833
1.918	77.694
1.912	77.861
1.906	78.1521
1.9	78.5721
1.894	78.8145
1.888	79.1295
1.882	79.3671
1.876	79.5404
1.87	79.4852
1.864	79.7498
1.858	79.7105
1.852	79.7952
1.846	79.7688
1.84	79.812
1.834	79.8252
1.828	79.8015
1.822	79.871
1.816	79.8823
1.81	79.8843
1.804	79.8668
1.798	79.9666
1.792	79.9738
1.786	79.9182
1.78	79.8714
1.774	79.8026
1.768	79.876
1.762	79.8455
1.756	79.8669
1.75	79.9411
1.744	79.9763
1.738	79.9707
1.732	80.0892
1.726	79.9834
1.72	79.9952
1.714	80.083
1.708	80.0604
1.702	79.9808
1.696	80.051
1.69	79.9935
1.684	80.0441
1.678	79.9896
1.672	80.0158
1.666	79.9716
1.66	79.9609
1.654	79.9607
1.648	80.0211
1.642	79.9851
1.636	80.009
1.63	79.9806
1.624	79.9811
1.618	80.0138
1.612	80.0638
1.606	80.0115
1.6	80.0023
1.594	79.9619
1.588	80.0316
1.582	79.9376
1.576	79.9912
1.57	79.9272
1.564	79.892
1.558	79.8749
1.552	79.8498
1.546	79.8838
1.54	79.8448
1.534	79.8688
1.528	79.8141
1.522	79.7684
1.516	79.7461
1.51	79.6619
1.504	79.6493
1.498	79.5533
1.492	79.5969
1.486	79.604
1.48	79.5611
1.474	79.478
1.468	79.4855
1.462	79.4845
1.456	79.4625
1.45	79.3751
1.444	79.3269
1.438	79.2756
1.432	79.1384
1.426	78.925
1.42	78.4059
1.414	77.6046
1.408	77.7662
1.402	78.1161
1.396	78.7855
1.39	79.3228
1.384	79.4259
1.378	79.4673
1.372	79.4984
1.366	79.5122
1.36	79.4785
1.354	79.4193
1.348	79.374
1.342	79.2892
1.336	79.3069
1.33	79.3592
1.324	79.3507
1.318	79.2549
1.312	79.2179
1.306	79.1701
1.3	79.2147
1.294	79.21
1.288	79.206
1.282	79.0665
1.276	79.133
1.27	79.1248
1.264	79.0596
1.258	79.0593
1.252	79.0047
1.246	78.9912
1.24	78.9399
1.234	78.9009
1.228	78.8796
1.222	78.8221
1.216	78.8325
1.21	78.7639
1.204	78.7264
1.198	78.6969
1.192	78.6825
1.186	78.6376
1.18	78.6351
1.174	78.611
1.168	78.5633
1.162	78.5347
1.156	78.5557
1.15	78.5152
1.144	78.4475
1.138	78.4116
1.132	78.4614
1.126	78.4422
1.12	78.4286
1.114	78.3855
1.108	78.2459
1.102	78.1944
1.096	78.2204
1.09	78.2075
1.084	78.1804
1.078	78.0679
1.072	78.0847
1.066	78.1059
1.06	78.0263
1.054	77.9707
1.048	77.9426
1.042	77.9195
1.036	77.9064
1.03	77.7542
1.024	77.9052
1.018	77.7312
1.012	77.6876
1.006	77.7358
1	77.6385
0.994	77.5781
0.988	77.601
0.982	77.5126
0.976	77.4977
0.97	77.4017
0.964	77.2828
0.958	77.3273
0.952	77.2709
0.946	77.302
0.94	77.1813
0.934	77.1147
0.928	77.1072
0.922	77.0316
0.916	76.9938
0.91	76.8963
0.904	76.8443
0.898	76.7945
0.892	76.7989
0.886	76.8063
0.88	76.7454
0.874	76.716
0.868	76.7935
0.862	76.6906
0.856	76.8287
0.85	76.7775
0.844	76.8473
0.838	76.7895
0.832	76.7416
0.826	76.7287
0.82	76.722
0.814	76.6966
0.808	76.6879
0.802	76.7473
0.796	76.5987
0.79	76.612
0.784	76.5979
0.778	76.5546
0.772	76.4663
0.766	76.4243
0.76	76.4157
0.754	76.3992
0.748	76.3564
0.742	76.324
0.736	76.2141
0.73	76.2044
0.724	76.1637
0.718	76.0966
0.712	76.0282
0.706	75.9738
0.7	75.9106
0.694	75.8539
0.688	75.8033
0.682	75.7432
0.676	75.6923
0.67	75.6326
0.664	75.5933
0.658	75.5344
0.652	75.502
0.646	75.4507
0.64	75.4173
0.634	75.382
0.628	75.3409
0.622	75.2591
0.616	75.2188
0.61	75.1092
0.604	74.9733
0.598	74.841
0.592	74.6244
0.586	74.3156
0.58	73.8957
0.574	73.3975
0.568	72.8244
0.562	72.2077
0.556	71.6047
0.55	70.976
0.544	70.4181
0.538	69.8817
0.532	69.3991
0.526	68.9541
0.52	68.5218
0.514	68.1058
0.508	67.6984
0.502	67.2761
0.496	66.821
0.49	66.4044
0.484	65.9936
0.478	65.5962
0.472	65.2312
0.466	64.8709
0.46	64.4559
0.454	64.0069
0.448	63.4307
0.442	62.7414
0.436	61.9724
0.43	61.1518
0.424	60.3535
0.418	59.5512
0.412	58.7869
0.406	58.0069
0.4	57.1573
