Name: Hydroxyapophyllite KCa_4Si_8O_20(OH,F).8H_2O
Type: Mineral
Class: Silicates
Subclass: Phyllosilicates
Particle Size: 125-500um
Sample No.: PS-22A
Owner: JPL
Origin: India, Maharashtra, Poona
Measurement: Hemispherical reflectance
X Units: Wavelength (micrometers)
Y Units: Reflectance (percent)
wavelength	value
15.385	1.2227
15.116	1.3647
14.856	1.4138
14.605	2.1933
14.362	2.8716
14.128	3.1553
13.9	3.985
13.68	4.4391
13.467	5.3419
13.26	7.133
13.06	8.4242
12.866	5.478
12.677	6.5433
12.494	3.5177
12.316	1.6555
12.143	2.0509
11.974	2.6878
11.811	3.1701
11.651	3.7196
11.496	4.146
11.345	4.7126
11.198	5.2728
11.055	5.8474
10.915	6.5099
10.779	7.0499
10.647	8.0495
10.517	9.1753
10.39	10.7697
10.267	12.8187
10.146	16.8014
10.029	24.6313
9.914	39.6216
9.801	52.1211
9.691	52.7924
9.584	52.52
9.479	47.3381
9.376	27.5096
9.275	2.8439
9.177	6.7118
9.08	21.7457
8.986	8.2407
8.893	10.856
8.803	5.0693
8.714	1.5322
8.627	0.3819
8.542	0.1247
8.458	0.0643
8.376	0.1267
8.296	0.2731
8.217	0.4205
8.139	0.572
8.063	0.492
7.989	0.8154
7.916	0.9561
7.844	1.0709
7.773	1.3246
7.704	1.4995
7.636	1.6218
7.569	1.6206
7.503	1.7664
7.439	1.7846
7.375	1.8053
7.313	2.0684
7.252	2.01
7.191	2.1125
7.132	2.2781
7.073	2.2157
7.016	2.2396
6.96	2.3175
6.904	2.2874
6.849	2.444
6.795	2.3592
6.742	2.3854
6.69	2.3265
6.639	2.4378
6.588	2.2917
6.538	2.2954
6.489	2.341
6.441	2.32
6.393	2.3736
6.346	2.5873
6.3	2.3156
6.254	2.3795
6.209	2.3991
6.165	2.4738
6.121	2.5269
6.078	2.5505
6.036	2.5693
5.994	2.588
5.953	2.6374
5.912	2.5021
5.872	1.6337
5.832	1.7617
5.793	2.3419
5.755	2.4401
5.716	2.6866
5.679	2.8833
5.642	2.9722
5.605	2.9136
5.569	3.1518
5.533	3.3843
5.498	3.3932
5.463	3.5109
5.429	3.5667
5.395	3.4364
5.362	3.6085
5.329	3.3879
5.296	3.3388
5.264	3.4241
5.232	3.6634
5.2	3.6985
5.169	3.7449
5.139	3.8347
5.108	3.8172
5.078	3.9093
5.049	4.0254
5.019	3.8877
4.99	3.8519
4.962	4.1492
4.933	4.0561
4.905	4.0941
4.878	4.1074
4.85	4.151
4.823	4.1687
4.796	3.9918
4.77	4.087
4.744	3.9299
4.718	3.8912
4.692	3.795
4.667	3.7866
4.642	3.6917
4.617	3.5901
4.592	3.468
4.568	3.531
4.544	3.465
4.52	3.5067
4.497	3.4754
4.474	3.3434
4.45	3.4902
4.428	3.4937
4.405	3.3443
4.383	3.4082
4.361	3.3705
4.339	3.3608
4.317	3.4207
4.296	3.3139
4.274	3.4426
4.253	3.4195
4.233	3.5912
4.212	3.6937
4.191	3.9452
4.171	4.0604
4.151	4.2532
4.131	4.346
4.112	4.323
4.092	4.3717
4.073	4.3431
4.054	4.4399
4.035	4.2192
4.016	4.2215
3.998	4.2049
3.979	4.2377
3.961	4.2192
3.943	4.2063
3.925	4.1593
3.907	4.2325
3.89	4.0786
3.872	3.9936
3.855	4.0354
3.838	4.098
3.821	3.9724
3.804	3.9814
3.787	3.9189
3.771	3.8943
3.754	3.7289
3.738	3.7313
3.722	3.7079
3.706	3.8145
3.69	3.8243
3.675	3.8233
3.659	3.6334
3.644	3.7851
3.628	3.7714
3.613	3.74
3.598	3.722
3.583	3.668
3.568	3.7493
3.554	3.7241
3.539	3.7532
3.525	3.9232
3.51	3.7776
3.496	3.8582
3.482	3.6976
3.468	3.8058
3.454	3.7227
3.441	3.7095
3.427	3.7787
3.413	3.8664
3.4	3.8734
3.387	3.8126
3.373	3.9808
3.36	3.9405
3.347	3.7972
3.334	3.8486
3.321	3.8148
3.309	3.6646
3.296	3.5477
3.284	3.3081
3.271	3.1966
3.259	3.0717
3.247	2.9312
3.234	2.922
3.222	2.8609
3.21	2.6799
3.199	2.7088
3.187	2.5774
3.175	2.5947
3.163	2.288
3.152	2.3152
3.14	2.3564
3.129	2.1919
3.118	2.0701
3.107	2.2048
3.095	2.1766
3.084	1.9053
3.073	2.1281
3.063	1.9792
3.052	2.0672
3.041	2.221
3.03	2.226
3.02	2.2789
3.009	2.3465
2.999	2.3076
2.988	2.4497
2.978	2.4956
2.968	2.452
2.958	2.2762
2.948	2.2465
2.938	2.3844
2.928	2.4729
2.918	2.5096
2.908	2.4589
2.898	2.7333
2.888	2.8556
2.879	3.0291
2.869	2.9951
2.86	3.0678
2.85	3.3834
2.841	3.3011
2.832	3.4046
2.822	3.1185
2.813	2.6665
2.804	2.4227
2.795	2.9306
2.786	3.6988
2.777	3.9139
2.768	4.1714
2.759	4.6159
2.751	5.2353
2.742	5.7466
2.733	5.9181
2.725	6.5345
2.716	6.6657
2.707	7.4478
2.699	7.5478
2.691	8.0721
2.682	8.8342
2.674	9.2265
2.666	9.3635
2.658	9.2053
2.649	9.5352
2.641	9.8933
2.633	10.6157
2.625	10.9619
2.617	11.0042
2.609	10.4545
2.602	10.8412
2.594	11.9531
2.586	12.1137
2.578	12.5712
2.571	12.9808
2.563	13.0398
2.555	13.1067
2.548	13.4843
2.54	13.508
2.533	12.7542
2.525	11.996
2.518	10.7975
2.511	10.6378
2.504	11.2084
2.496	10.9706
2.489	10.043
2.482	9.1372
2.475	8.4443
2.468	8.1655
2.461	7.9777
2.454	8.3795
2.447	8.8241
2.44	9.7696
2.433	10.7447
2.426	9.876
2.419	8.5507
2.413	7.9458
2.406	7.8089
2.399	7.7133
2.393	7.9611
2.386	8.3154
2.379	9.1027
2.373	10.9531
2.366	13.8216
2.36	16.9666
2.354	20.1452
2.347	22.1528
2.341	23.4764
2.334	24.2217
2.328	24.4539
2.322	24.5374
2.316	23.8684
2.309	23.2573
2.303	23.5626
2.297	24.4962
2.291	25.5085
2.285	26.0724
2.279	26.0615
2.273	26.5114
2.267	26.7873
2.261	26.6881
2.255	26.4933
2.249	26.4969
2.244	26.2735
2.238	26.1486
2.232	25.7527
2.226	25.5983
2.22	25.3006
2.215	24.7733
2.209	24.1312
2.204	23.5421
2.198	23.0418
2.192	22.7272
2.187	22.1398
2.181	22.1706
2.176	21.8905
2.17	21.6181
2.165	21.1655
2.159	20.2962
2.154	20.2035
2.149	19.5596
2.143	19.1318
2.138	19.0254
2.133	19.6241
2.128	19.5974
2.122	20.3565
2.117	20.6401
2.112	21.3103
2.107	22.007
2.102	22.5721
2.097	22.3464
2.091	22.6788
2.086	22.3122
2.081	22.5806
2.076	22.0483
2.071	21.8732
2.066	21.4641
2.062	21.7459
2.057	22.0218
2.052	21.865
2.047	21.7084
2.042	21.8805
2.037	21.9293
2.032	21.6905
2.028	21.7849
2.023	21.8686
2.018	21.676
2.014	21.5752
2.009	21.4985
2.004	21.3481
