Name: Antlerite Cu_3(SO_4)(OH)_4
Type: Mineral
Class: Sulfates
Particle Size: 45-125um
Sample No.: SO-11A
Owner: JPL
Wavelength Range: VNIR-SWIR
Origin: USA, Arizona, Greenlee County, Morenci
Measurement: Hemispherical reflectance
X Units: Wavelength (micrometers)
Y Units: Reflectance (percent)
wavelength	value
0.4	11.99
0.403	12.3
0.406	12.41
0.409	12.69
0.412	12.92
0.415	13.12
0.418	13.43
0.421	13.63
0.424	13.93
0.427	14.32
0.43	14.67
0.433	15.07
0.436	15.51
0.439	15.81
0.442	16.35
0.445	16.69
0.448	17.2
0.451	17.59
0.454	18.16
0.457	18.55
0.46	19.01
0.463	19.78
0.466	20.43
0.469	21.01
0.472	21.67
0.475	22.36
0.478	23.26
0.481	23.93
0.484	24.76
0.487	25.39
0.49	26.25
0.493	26.95
0.496	27.64
0.499	28.37
0.502	28.98
0.505	29.48
0.508	30.03
0.511	30.35
0.514	30.72
0.517	30.99
0.52	31.01
0.523	31.03
0.526	30.88
0.529	30.64
0.532	30.43
0.535	29.95
0.538	29.36
0.541	28.69
0.544	27.86
0.547	27.14
0.55	26.2
0.553	25.28
0.556	24.16
0.559	23.44
0.562	22.11
0.565	21.06
0.568	19.94
0.571	18.92
0.574	17.84
0.577	16.81
0.58	15.95
0.583	14.94
0.586	14.29
0.589	13.51
0.592	12.85
0.595	12.2
0.598	11.66
0.601	11.15
0.604	10.67
0.607	10.34
0.61	9.96
0.613	9.6
0.616	9.22
0.619	9.13
0.622	8.85
0.625	8.63
0.628	8.36
0.631	8.22
0.634	8
0.637	7.95
0.64	7.83
0.643	7.7
0.646	7.6
0.649	7.42
0.652	7.39
0.655	7.3
0.658	7.27
0.661	7.13
0.664	7.1
0.667	7.02
0.67	6.91
0.673	7.07
0.676	6.93
0.679	6.8
0.682	6.84
0.685	6.89
0.688	6.86
0.691	6.79
0.694	6.79
0.697	6.79
0.7	6.73
0.703	6.66
0.706	6.72
0.709	6.74
0.712	6.67
0.715	6.78
0.718	6.69
0.721	6.79
0.724	6.74
0.727	6.79
0.73	6.74
0.733	6.68
0.736	6.74
0.739	6.8
0.742	6.89
0.745	6.77
0.748	6.84
0.751	6.83
0.754	6.84
0.757	6.84
0.76	6.88
0.763	6.88
0.766	6.94
0.769	6.94
0.772	7
0.775	7.05
0.778	7
0.781	6.93
0.784	6.93
0.787	7.03
0.79	7.04
0.793	6.99
0.796	7.04
0.799	7.39
0.808	7.67
0.82	7.53
0.832	7.51
0.844	7.45
0.856	7.34
0.868	7.36
0.88	7.37
0.892	7.25
0.904	7.26
0.916	7.29
0.928	7.25
0.94	7.32
0.952	7.32
0.964	7.49
0.976	7.54
0.988	7.71
1	7.83
1.012	7.95
1.024	8.19
1.036	8.35
1.048	8.62
1.06	8.83
1.072	8.98
1.084	9.28
1.096	9.64
1.108	9.83
1.12	10.26
1.132	10.6
1.144	10.93
1.156	11.42
1.168	11.93
1.18	12.36
1.192	13
1.204	13.66
1.216	14.37
1.228	15.09
1.24	15.94
1.252	16.76
1.264	17.56
1.276	18.53
1.288	19.57
1.3	20.46
1.312	21.49
1.324	22.63
1.336	23.65
1.348	24.73
1.36	25.76
1.372	26.69
1.384	27.61
1.396	27.97
1.408	27.17
1.42	27.66
1.432	22.64
1.444	30.39
1.456	29.72
1.468	24.26
1.48	29.76
1.492	34.01
1.504	35.6
1.516	36.73
1.528	37.43
1.54	38.03
1.552	38.57
1.564	39.08
1.576	39.57
1.588	39.99
1.6	40.3
1.612	40.6
1.624	40.93
1.636	41.17
1.648	41.33
1.66	41.49
1.672	41.61
1.684	41.77
1.696	41.83
1.708	41.94
1.72	41.98
1.732	42.07
1.744	42.22
1.756	42.27
1.768	42.36
1.78	42.42
1.792	42.51
1.804	42.53
1.816	42.48
1.828	42.36
1.84	42.24
1.852	42.26
1.864	42.02
1.876	41.56
1.888	41.16
1.9	40.44
1.912	39.79
1.924	39.57
1.936	39.19
1.948	38.58
1.96	38.33
1.972	39.13
1.984	39.91
1.996	40.35
2.008	40.46
2.02	40.64
2.032	40.85
2.044	40.93
2.056	40.73
2.068	40.45
2.08	40.19
2.092	39.34
2.104	37.8
2.116	37.03
2.128	36.3
2.14	34.73
2.152	34.81
2.164	36.18
2.176	35.73
2.188	34.57
2.2	34.16
2.212	31.81
2.224	26.72
2.236	22.48
2.248	22.02
2.26	23.28
2.272	21.54
2.284	16.92
2.296	12.27
2.308	10.78
2.32	11.51
2.332	11.42
2.344	10.48
2.356	11.8
2.368	15.31
2.38	18.86
2.392	21.74
2.404	23.64
2.416	23.9
2.428	22.47
2.44	20.85
2.452	20.73
2.464	21.85
2.476	22.82
2.488	22.76
2.5	21.89
