Name: Scoria
Type: Rock
Class: Igneous
Subclass: Basic
Particle Size: Solid surface
Sample No.: Ward02.txt
Owner: JPL
Origin: Ward's Collection of American Rocks.  Sample locality - Klamath Falls, Klamath County, Oregon.
Description: A cellular lava rock that varies in color from reddish brown
Measurement: Hemispherical reflectance
X Units: Wavelength (micrometers)
Y Units: Reflectance (percent)
wavelength	value
15.3871	2.34075
15.118	1.49135
14.8581	1.57627
14.6069	1.92705
14.3642	2.19788
14.1293	2.18268
13.9021	2.39864
13.682	2.27913
13.4687	2.13521
13.2621	2.48054
13.0616	2.38072
12.8672	2.56681
12.6784	2.83418
12.4951	2.95197
12.317	3.27188
12.1439	3.80577
11.9757	3.97479
11.812	4.35024
11.6527	4.55184
11.4977	4.94926
11.3468	5.00661
11.1997	5.36607
11.0564	5.56106
10.9168	6.00028
10.7806	6.37272
10.6478	6.73073
10.5182	7.05121
10.3917	7.09306
10.2683	7.21969
10.1477	7.23836
10.0299	7.70891
9.9148	8.04416
9.8024	8.11768
9.6925	8.05053
9.585	7.88872
9.4798	7.51906
9.377	7.13019
9.2763	6.81936
9.1778	6.81894
9.0814	6.88441
8.987	6.60142
8.8945	6.61133
8.8039	6.22124
8.7151	6.19389
8.6281	5.89822
8.5428	5.64416
8.4592	5.6078
8.3772	5.06132
8.2967	4.369
8.2179	3.46165
8.1404	2.61645
8.0645	2.33889
7.9899	1.99021
7.9167	1.99717
7.8449	1.90369
7.7743	2.09241
7.705	1.95099
7.6369	2.11886
7.57	2.00337
7.5043	2.10311
7.4397	2.20645
7.3762	2.21744
7.3138	2.24789
7.2524	2.16387
7.1921	2.3413
7.1327	2.48181
7.0743	2.42223
7.0169	2.43178
6.9604	2.52954
6.9047	2.5901
6.85	2.50129
6.7962	2.57891
6.7431	2.6109
6.6909	2.67926
6.6395	2.81054
6.5889	2.61756
6.539	2.64844
6.49	2.76637
6.4416	2.81198
6.3939	2.76162
6.347	2.7866
6.3007	2.73037
6.2551	2.77155
6.2101	2.64322
6.1658	2.56278
6.1222	2.6321
6.0791	2.60483
6.0366	2.65591
5.9948	2.79246
5.9535	2.74239
5.9127	2.97766
5.8726	2.95908
5.8329	3.17023
5.7938	3.1725
5.7552	3.24163
5.7172	3.13309
5.6796	3.21188
5.6425	3.31579
5.6059	3.24416
5.5698	3.33225
5.5341	3.40582
5.4989	3.42949
5.4641	3.48119
5.4298	3.44324
5.3959	3.61203
5.3624	3.69028
5.3294	3.64881
5.2967	3.71999
5.2644	3.79716
5.2326	3.83979
5.2011	3.9415
5.17	3.79644
5.1392	3.8694
5.1088	4.0319
5.0788	4.06109
5.0491	4.16862
5.0198	4.10581
4.9908	4.23349
4.9622	4.34139
4.9338	4.28895
4.9058	4.41947
4.8781	4.32769
4.8508	4.54494
4.8237	4.58361
4.7969	4.603
4.7704	4.62332
4.7443	4.58907
4.7184	4.73734
4.6927	4.78488
4.6674	4.68413
4.6423	4.81756
4.6175	4.77744
4.593	4.7147
4.5687	4.89861
4.5447	4.78401
4.5209	4.93922
4.4974	5.00875
4.4741	4.8423
4.451	4.88596
4.4282	5.00552
4.4057	5.06608
4.3833	4.92726
4.3612	5.14289
4.3393	5.15873
4.3176	5.03531
4.2962	5.12769
4.2749	5.10413
4.2539	5.31992
4.233	5.20465
4.2124	5.09705
4.192	5.20814
4.1717	5.06227
4.1517	5.21641
4.1319	5.28688
4.1122	5.30155
4.0927	5.34501
4.0734	5.23272
4.0543	5.31431
4.0354	5.30282
4.0166	5.32125
3.9981	5.46798
3.9796	5.44409
3.9614	5.2509
3.9433	5.27008
3.9254	5.46317
3.9077	5.60446
3.8901	5.34022
3.8726	5.36859
3.8554	5.21933
3.8382	5.42734
3.8213	5.53084
3.8045	5.47478
3.7878	5.37039
3.7713	5.46075
3.7549	5.49508
3.7386	5.39841
3.7225	5.52169
3.7066	5.39968
3.6907	5.48566
3.675	5.65264
3.6595	5.53789
3.644	5.34189
3.6287	5.40869
3.6136	5.40172
3.5985	5.56381
3.5836	5.54755
3.5688	5.59719
3.5541	5.57622
3.5396	5.44883
3.5251	5.43175
3.5108	5.57328
3.4966	5.58266
3.4825	5.26343
3.4685	5.4971
3.4547	5.25878
3.4409	5.54795
3.4273	5.34973
3.4137	5.63313
3.4003	5.5904
3.387	5.21622
3.3738	5.2546
3.3606	5.45248
3.3476	5.04441
3.3347	5.32022
3.3219	5.27397
3.3092	5.29476
3.2965	5.32996
3.284	5.1927
3.2716	5.18039
3.2593	5.11316
3.247	5.23506
3.2348	5.19282
3.2228	4.99084
3.2108	5.16994
3.1989	4.80037
3.1871	5.13195
3.1754	5.2962
3.1638	4.78769
3.1523	4.9108
3.1408	5.18642
3.1294	4.58693
3.1181	4.75382
3.1069	5.05011
3.0958	5.0115
3.0848	4.9833
3.0738	5.22881
3.0629	4.54946
3.0521	4.47295
3.0413	4.74722
3.0307	4.71921
3.0201	4.96199
3.0096	4.60375
2.9991	4.41911
2.9887	4.8266
2.9784	4.54942
2.9682	4.44632
2.9581	4.67999
2.948	4.81285
2.9379	4.68626
2.928	4.92548
2.9181	4.16379
2.9083	5.02653
2.8985	4.93006
2.8888	4.86927
2.8792	4.78163
2.8697	4.68867
2.8602	5.38928
2.8507	4.71417
2.8413	5.00625
2.832	4.58268
2.8228	4.39691
2.8136	4.79956
2.8045	5.50016
2.7954	4.59166
2.7864	5.08673
2.7774	5.39779
2.7685	5.53783
2.7597	4.66673
2.7509	5.18362
2.7422	5.74349
2.7335	5.51726
2.7249	5.38834
2.7163	5.9284
2.7078	5.46145
2.6994	5.84045
2.691	6.14153
2.6826	6.31015
2.6743	6.42996
2.666	6.062
2.6578	6.06875
2.6497	6.35496
2.6416	6.09498
2.6336	6.68431
2.6256	6.04764
2.6176	6.73787
2.6097	6.45929
2.6018	6.27034
2.594	6.3429
2.5863	5.83851
2.5785	6.23839
2.5709	6.76152
2.5633	6.34124
2.5557	6.49201
2.5481	6.46173
2.5406	5.93552
2.5332	6.25434
2.5258	6.20821
2.5184	6.66183
2.5111	6.24383
2.5038	6.37501
2.4966	6.14595
2.4894	6.29679
2.4823	6.4431
2.4752	6.63187
2.4681	6.70977
2.4611	6.46046
2.4541	6.40231
2.4471	7.07612
2.4402	5.75979
2.4333	6.89559
2.4265	7.23501
2.4197	6.08452
2.413	6.27348
2.4063	6.04313
2.3996	6.37952
2.3929	6.44912
2.3863	6.52578
2.3798	6.45395
2.3732	6.07579
2.3667	7.13382
2.3603	6.48112
2.3538	6.72168
2.3474	6.66896
2.3411	6.55677
2.3347	6.04791
2.3285	6.82082
2.3222	7.19302
2.316	5.6386
2.3098	6.53532
2.3036	6.84406
2.2975	7.26258
2.2914	6.64683
2.2854	6.43028
2.2793	6.75861
2.2733	6.68902
2.2674	6.91145
2.2614	6.8164
2.2555	7.20967
2.2497	7.56916
2.2438	7.4372
2.238	6.73013
2.2322	6.1368
2.2265	6.95707
2.2208	6.60179
2.2151	6.62601
2.2094	7.0189
2.2038	6.37063
2.1982	6.92146
2.1926	6.21678
2.187	6.46238
2.1815	6.59491
2.176	6.88327
2.1706	6.17241
2.1651	6.36087
2.1597	6.65237
2.1543	6.06143
2.149	6.75614
2.1436	7.29089
2.1383	6.43576
2.1331	6.3006
2.1278	6.23354
2.1226	7.36706
2.1174	6.2406
2.1122	5.70384
2.1071	6.47989
2.1019	7.54019
2.0968	7.15989
2.0918	6.59373
2.0867	5.39267
2.0817	6.61043
2.0767	7.54545
2.0717	5.79748
2.0667	7.75434
2.0618	6.55653
2.0569	7.30437
2.052	8.13419
2.0472	4.64551
2.0423	7.01548
2.0375	7.5638
2.0327	6.10821
2.028	9.62335
2.0232	7.85879
2.0185	6.10101
2.0138	6.56094
2.0091	5.67949
2.0044	7.35879
1.9998	6.41676
