Name: Chlorite
Type: Mineral
Class: Silicates
Subclass: Phyllosilicates
Particle Size: 0-45um
Sample No.: PS-12F
Owner: JPL
Origin: USA, New Mexico.
Measurement: Hemispherical reflectance
X Units: Wavelength (micrometers)
Y Units: Reflectance (percent)
wavelength	value
2.5	50.4523
2.494	50.4444
2.488	50.7646
2.482	51.1918
2.476	51.7453
2.47	52.0647
2.464	52.7556
2.458	53.0685
2.452	53.4206
2.446	53.5629
2.44	53.6283
2.434	53.7987
2.428	53.7994
2.422	53.8223
2.416	53.8451
2.41	53.8586
2.404	53.6905
2.398	53.3464
2.392	52.8653
2.386	52.1788
2.38	51.1492
2.374	50.0811
2.368	49.1365
2.362	48.5674
2.356	48.3962
2.35	48.5167
2.344	48.9518
2.338	49.6867
2.332	50.2731
2.326	50.9658
2.32	51.461
2.314	52.1881
2.308	52.7621
2.302	53.1616
2.296	53.5989
2.29	53.6994
2.284	53.5626
2.278	52.9632
2.272	51.961
2.266	50.8748
2.26	50.2485
2.254	50.8185
2.248	52.6733
2.242	55.0232
2.236	57.0056
2.23	58.3628
2.224	59.3616
2.218	60.1393
2.212	60.518
2.206	60.9776
2.2	61.3312
2.194	61.5217
2.188	61.6931
2.182	61.8797
2.176	62.077
2.17	62.1655
2.164	62.3572
2.158	62.4673
2.152	62.5246
2.146	62.4772
2.14	62.398
2.134	62.3
2.128	62.1571
2.122	61.9441
2.116	61.918
2.11	61.7315
2.104	61.5042
2.098	61.276
2.092	61.2962
2.086	61.1513
2.08	61.0085
2.074	60.8627
2.068	60.7289
2.062	60.5479
2.056	60.2976
2.05	59.9752
2.044	59.6611
2.038	59.2488
2.032	58.8537
2.026	58.3588
2.02	57.9927
2.014	57.6926
2.008	57.552
2.002	57.4514
1.996	57.485
1.99	57.5681
1.984	57.6305
1.978	57.7662
1.972	57.8304
1.966	57.8725
1.96	57.7536
1.954	57.705
1.948	57.769
1.942	57.7434
1.936	57.8543
1.93	57.6428
1.924	57.5238
1.918	57.4025
1.912	57.3737
1.906	57.3616
1.9	57.3214
1.894	57.3345
1.888	57.2483
1.882	57.1825
1.876	57.2236
1.87	57.1692
1.864	57.1785
1.858	57.1456
1.852	57.0785
1.846	56.9637
1.84	56.9283
1.834	56.7652
1.828	56.6122
1.822	56.5938
1.816	56.4551
1.81	56.3245
1.804	56.2623
1.798	56.0991
1.792	55.8028
1.786	55.7572
1.78	55.4669
1.774	55.3363
1.768	55.1168
1.762	54.9688
1.756	54.7671
1.75	54.5868
1.744	54.3819
1.738	54.2432
1.732	53.9895
1.726	53.843
1.72	53.6262
1.714	53.3555
1.708	53.1133
1.702	52.8466
1.696	52.6732
1.69	52.4067
1.684	52.2061
1.678	51.9162
1.672	51.6536
1.666	51.4518
1.66	51.1789
1.654	50.952
1.648	50.6792
1.642	50.3873
1.636	50.1056
1.63	49.7917
1.624	49.5251
1.618	49.1955
1.612	48.9293
1.606	48.6402
1.6	48.4231
1.594	48.0964
1.588	47.7584
1.582	47.4736
1.576	47.2258
1.57	46.9852
1.564	46.6841
1.558	46.387
1.552	46.1408
1.546	45.9067
1.54	45.6272
1.534	45.4094
1.528	45.1807
1.522	44.9696
1.516	44.7214
1.51	44.5423
1.504	44.2679
1.498	44.0434
1.492	43.7472
1.486	43.45
1.48	43.1272
1.474	42.8129
1.468	42.4364
1.462	42.0939
1.456	41.7858
1.45	41.4775
1.444	41.2227
1.438	41.0227
1.432	40.781
1.426	40.3706
1.42	39.1292
1.414	37.1024
1.408	37.6791
1.402	38.4593
1.396	39.0732
1.39	39.0363
1.384	38.7582
1.378	38.4553
1.372	38.073
1.366	37.7303
1.36	37.344
1.354	36.9929
1.348	36.5986
1.342	36.1356
1.336	35.7501
1.33	35.5173
1.324	35.0637
1.318	34.6024
1.312	34.351
1.306	33.9007
1.3	33.5756
1.294	33.1935
1.288	32.8518
1.282	32.4796
1.276	32.0994
1.27	31.7232
1.264	31.3308
1.258	31.0196
1.252	30.5875
1.246	30.2527
1.24	29.8666
1.234	29.4657
1.228	29.1988
1.222	28.8387
1.216	28.4778
1.21	28.1728
1.204	27.8554
1.198	27.5637
1.192	27.2511
1.186	27.0511
1.18	26.7041
1.174	26.5154
1.168	26.2664
1.162	26.0448
1.156	25.894
1.15	25.6081
1.144	25.4839
1.138	25.2939
1.132	25.169
1.126	25.0054
1.12	24.8754
1.114	24.7256
1.108	24.624
1.102	24.5896
1.096	24.4811
1.09	24.3967
1.084	24.3296
1.078	24.2178
1.072	24.2425
1.066	24.2066
1.06	24.1499
1.054	24.1266
1.048	23.9938
1.042	24.003
1.036	23.9619
1.03	23.9191
1.024	23.8849
1.018	23.8364
1.012	23.7822
1.006	23.6041
1	23.4862
0.994	23.4597
0.988	23.2232
0.982	23.1007
0.976	22.9311
0.97	22.7223
0.964	22.5467
0.958	22.3808
0.952	22.2292
0.946	21.9534
0.94	21.8378
0.934	21.6676
0.928	21.4658
0.922	21.3576
0.916	21.1944
0.91	21.1701
0.904	21.0099
0.898	20.9225
0.892	20.8537
0.886	20.9036
0.88	20.8129
0.874	20.8954
0.868	20.9294
0.862	21.0186
0.856	21.2065
0.85	21.3058
0.844	21.4285
0.838	21.531
0.832	21.6336
0.826	21.7537
0.82	21.8035
0.814	21.8595
0.808	21.8936
0.802	21.8817
0.796	21.8328
0.79	21.7572
0.784	21.648
0.778	21.5442
0.772	21.396
0.766	21.2675
0.76	21.124
0.754	20.9989
0.748	20.8755
0.742	20.7698
0.736	20.6921
0.73	20.6206
0.724	20.5614
0.718	20.5384
0.712	20.5343
0.706	20.5559
0.7	20.5963
0.694	20.6515
0.688	20.7319
0.682	20.8235
0.676	20.9348
0.67	21.0537
0.664	21.189
0.658	21.3194
0.652	21.4663
0.646	21.6122
0.64	21.7587
0.634	21.9067
0.628	22.0466
0.622	22.1924
0.616	22.3342
0.61	22.4661
0.604	22.5953
0.598	22.7226
0.592	22.8491
0.586	22.9348
0.58	22.9977
0.574	23.0373
0.568	23.0395
0.562	22.9869
0.556	22.8666
0.55	22.6897
0.544	22.4566
0.538	22.1676
0.532	21.8376
0.526	21.4732
0.52	21.0514
0.514	20.5432
0.508	19.9621
0.502	19.3412
0.496	18.6716
0.49	18.166
0.484	17.6297
0.478	17.0976
0.472	16.5797
0.466	16.1311
0.46	15.7194
0.454	15.3286
0.448	14.8847
0.442	14.2971
0.436	13.582
0.43	12.8312
0.424	12.1195
0.418	11.4937
0.412	10.9365
0.406	10.4469
0.4	9.99342
