Name: Topaz Al_2SiO_4(F,OH)_2
Type: Mineral
Class: Silicates
Subclass: Nesosilicates
Particle Size: 45-125um
Sample No.: NS-6A
Owner: JPL
Wavelength Range: VNIR-SWIR
Origin: Australia, Western Australia, Grossmont
Measurement: Hemispherical reflectance
X Units: Wavelength (micrometers)
Y Units: Reflectance (percent)
wavelength	value
0.4	55.92
0.403	56.06
0.406	56.23
0.409	56.1
0.412	56.17
0.415	56.19
0.418	56.32
0.421	56.18
0.424	56.23
0.427	56.2
0.43	56.14
0.433	56.14
0.436	56.32
0.439	56.31
0.442	56.24
0.445	56.34
0.448	56.38
0.451	56.31
0.454	56.23
0.457	56.37
0.46	56.41
0.463	56.3
0.466	56.48
0.469	56.44
0.472	56.45
0.475	56.44
0.478	56.52
0.481	56.52
0.484	56.45
0.487	56.39
0.49	56.49
0.493	56.48
0.496	56.41
0.499	56.52
0.502	56.52
0.505	56.45
0.508	56.43
0.511	56.57
0.514	56.68
0.517	56.46
0.52	56.37
0.523	56.65
0.526	56.7
0.529	56.49
0.532	56.42
0.535	56.42
0.538	56.53
0.541	56.36
0.544	56.32
0.547	56.51
0.55	56.48
0.553	56.43
0.556	56.54
0.559	56.67
0.562	56.74
0.565	56.87
0.568	56.67
0.571	56.46
0.574	56.22
0.577	56.5
0.58	56.4
0.583	56.29
0.586	56.37
0.589	56.4
0.592	56.37
0.595	56.24
0.598	56.49
0.601	56.42
0.604	56.44
0.607	56.49
0.61	56.53
0.613	56.4
0.616	56.39
0.619	56.33
0.622	56.36
0.625	56.33
0.628	56.36
0.631	56.37
0.634	56.3
0.637	56.2
0.64	56.37
0.643	56.38
0.646	56.15
0.649	56.17
0.652	56.33
0.655	56.3
0.658	56.31
0.661	56.23
0.664	56.33
0.667	56.36
0.67	56.33
0.673	56.27
0.676	56.45
0.679	56.39
0.682	56.27
0.685	56.37
0.688	56.41
0.691	56.43
0.694	56.37
0.697	56.49
0.7	56.29
0.703	56.42
0.706	56.42
0.709	56.35
0.712	56.34
0.715	56.5
0.718	56.37
0.721	56.44
0.724	56.37
0.727	56.42
0.73	56.29
0.733	56.64
0.736	56.51
0.739	56.44
0.742	56.52
0.745	56.48
0.748	56.46
0.751	56.63
0.754	56.56
0.757	56.33
0.76	56.6
0.763	56.45
0.766	56.46
0.769	56.58
0.772	56.68
0.775	56.45
0.778	56.52
0.781	56.68
0.784	56.57
0.787	56.6
0.79	56.77
0.793	56.67
0.796	56.72
0.799	56.87
0.808	56.93
0.82	57.05
0.832	57.2
0.844	57.29
0.856	57.38
0.868	57.37
0.88	57.22
0.892	57.22
0.904	57.27
0.916	57.34
0.928	57.38
0.94	57.4
0.952	57.31
0.964	57.43
0.976	57.42
0.988	57.47
1	57.47
1.012	57.43
1.024	57.49
1.036	57.53
1.048	57.53
1.06	57.64
1.072	57.59
1.084	57.67
1.096	57.6
1.108	57.61
1.12	57.61
1.132	57.65
1.144	57.7
1.156	57.68
1.168	57.63
1.18	57.62
1.192	57.62
1.204	57.62
1.216	57.67
1.228	57.6
1.24	57.73
1.252	57.87
1.264	57.84
1.276	57.72
1.288	57.76
1.3	57.78
1.312	57.68
1.324	57.7
1.336	57.54
1.348	57.51
1.36	57.65
1.372	57.57
1.384	57.48
1.396	52.64
1.408	56.04
1.42	57.81
1.432	57.86
1.444	57.94
1.456	57.87
1.468	57.87
1.48	57.93
1.492	58
1.504	58.12
1.516	58.15
1.528	58.14
1.54	58.1
1.552	58.05
1.564	58.14
1.576	58.25
1.588	58.25
1.6	58.2
1.612	58.34
1.624	58.26
1.636	58.28
1.648	58.41
1.66	58.42
1.672	58.13
1.684	58.1
1.696	58.41
1.708	58.43
1.72	58.41
1.732	58.4
1.744	58.47
1.756	58.5
1.768	58.45
1.78	58.52
1.792	58.62
1.804	58.58
1.816	58.54
1.828	58.52
1.84	58.41
1.852	58.44
1.864	58.49
1.876	58.4
1.888	58.34
1.9	58.17
1.912	58.1
1.924	58.15
1.936	58.21
1.948	58.28
1.96	58.27
1.972	58.17
1.984	58.37
1.996	58.56
2.008	58.55
2.02	58.6
2.032	58.45
2.044	57.79
2.056	53.81
2.068	44.46
2.08	40.48
2.092	47.48
2.104	55.15
2.116	57.02
2.128	56.03
2.14	54.68
2.152	54.51
2.164	55.35
2.176	56
2.188	56.16
2.2	56.14
2.212	56.53
2.224	57.46
2.236	57.73
2.248	57.31
2.26	57.02
2.272	57.15
2.284	57.01
2.296	56.35
2.308	55.58
2.32	54.91
2.332	54.59
2.344	54.46
2.356	54.08
2.368	53.66
2.38	53.26
2.392	52.65
2.404	51.89
2.416	51.31
2.428	50.7
2.44	49.71
2.452	48.26
2.464	46.3
2.476	44.04
2.488	41.65
2.5	39.19
