Name: Tschermigite (NH_4)Al(SO_4)_2.12H_2O
Type: Mineral
Class: Sulfates
Particle Size: 125-500um
Sample No.: SO-6A
Owner: JPL
Wavelength Range: VNIR-SWIR
Origin: USA, Nevada, Esmeralda County, Silver Peak
Measurement: Hemispherical reflectance
X Units: Wavelength (micrometers)
Y Units: Reflectance (percent)
wavelength	value
0.4	82.94
0.403	83.43
0.406	83.87
0.409	84.11
0.412	84.52
0.415	85.02
0.418	85.42
0.421	85.51
0.424	86.09
0.427	86.36
0.43	86.45
0.433	86.65
0.436	86.89
0.439	87.24
0.442	87.24
0.445	87.44
0.448	87.73
0.451	87.6
0.454	87.74
0.457	87.92
0.46	88.11
0.463	88.01
0.466	88.19
0.469	88.24
0.472	88.29
0.475	88.48
0.478	88.4
0.481	88.4
0.484	88.58
0.487	88.49
0.49	88.51
0.493	88.48
0.496	88.56
0.499	88.48
0.502	88.49
0.505	88.61
0.508	88.62
0.511	88.63
0.514	88.69
0.517	88.68
0.52	88.59
0.523	88.55
0.526	88.65
0.529	88.53
0.532	88.53
0.535	88.44
0.538	88.71
0.541	88.53
0.544	88.49
0.547	88.58
0.55	88.61
0.553	88.73
0.556	88.75
0.559	88.83
0.562	89.07
0.565	89.05
0.568	88.87
0.571	88.6
0.574	88.55
0.577	88.75
0.58	88.48
0.583	88.35
0.586	88.6
0.589	88.7
0.592	88.65
0.595	88.82
0.598	88.97
0.601	88.83
0.604	88.75
0.607	88.95
0.61	88.84
0.613	88.78
0.616	88.84
0.619	88.89
0.622	88.79
0.625	88.79
0.628	88.85
0.631	88.89
0.634	88.9
0.637	88.96
0.64	88.9
0.643	88.77
0.646	88.85
0.649	88.91
0.652	88.9
0.655	88.94
0.658	89.01
0.661	88.95
0.664	88.79
0.667	88.95
0.67	88.9
0.673	88.84
0.676	88.85
0.679	89.06
0.682	88.89
0.685	88.8
0.688	88.85
0.691	88.78
0.694	88.96
0.697	88.83
0.7	88.84
0.703	88.69
0.706	88.74
0.709	88.86
0.712	88.72
0.715	88.69
0.718	88.68
0.721	88.63
0.724	88.63
0.727	88.58
0.73	88.58
0.733	88.51
0.736	88.63
0.739	88.34
0.742	88.4
0.745	88.17
0.748	88.18
0.751	87.99
0.754	87.99
0.757	87.94
0.76	87.82
0.763	87.79
0.766	87.78
0.769	87.72
0.772	87.67
0.775	87.83
0.778	87.89
0.781	87.67
0.784	87.67
0.787	87.72
0.79	87.63
0.793	87.56
0.796	87.76
0.799	87.71
0.808	87.71
0.82	87.59
0.832	87.44
0.844	87.26
0.856	87
0.868	86.71
0.88	86.28
0.892	85.91
0.904	85.62
0.916	85.17
0.928	84.79
0.94	84.17
0.952	83.28
0.964	81.84
0.976	79.94
0.988	78.73
1	78.2
1.012	78.28
1.024	78.73
1.036	79.41
1.048	79.96
1.06	80.08
1.072	79.83
1.084	79.42
1.096	78.63
1.108	77.8
1.12	77.13
1.132	76.15
1.144	74.53
1.156	71.79
1.168	68.74
1.18	66.47
1.192	64.88
1.204	63.51
1.216	62.49
1.228	61.88
1.24	61.27
1.252	61.22
1.264	61.39
1.276	61.46
1.288	61.34
1.3	60.45
1.312	59.11
1.324	56.98
1.336	54.77
1.348	52.64
1.36	51.11
1.372	49.87
1.384	48.56
1.396	45.98
1.408	41.18
1.42	34.73
1.432	27.96
1.444	22.78
1.456	19.76
1.468	18.21
1.48	17.77
1.492	18.01
1.504	17.87
1.516	17.2
1.528	16.44
1.54	15.65
1.552	15.19
1.564	14.8
1.576	14.68
1.588	14.56
1.6	14.4
1.612	14.29
1.624	13.94
1.636	13.59
1.648	13.27
1.66	12.66
1.672	12.11
1.684	11.41
1.696	10.71
1.708	9.95
1.72	9.4
1.732	8.87
1.744	8.43
1.756	8.02
1.768	7.57
1.78	7.19
1.792	6.94
1.804	6.86
1.816	6.79
1.828	6.7
1.84	6.64
1.852	6.37
1.864	6.07
1.876	5.59
1.888	5.27
1.9	4.42
1.912	3.77
1.924	3.2
1.936	2.79
1.948	2.59
1.96	2.46
1.972	2.44
1.984	2.32
1.996	2.61
2.008	2.71
2.02	2.99
2.032	3.21
2.044	3.37
2.056	3.47
2.068	3.49
2.08	3.47
2.092	3.41
2.104	3.31
2.116	3.33
2.128	3.2
2.14	3.14
2.152	3.04
2.164	3.19
2.176	3.13
2.188	3.21
2.2	3.15
2.212	3.21
2.224	3.15
2.236	3.21
2.248	3.21
2.26	3.2
2.272	3.25
2.284	3.14
2.296	3.14
2.308	3.13
2.32	3.17
2.332	3.15
2.344	3.19
2.356	3.21
2.368	3.17
2.38	2.94
2.392	2.88
2.404	2.7
2.416	2.38
2.428	2.32
2.44	2.09
2.452	1.98
2.464	1.86
2.476	1.7
2.488	1.59
2.5	1.65
