Name: Sulphur S
Type: Mineral
Class: Elements
Particle Size: 45-125um
Sample No.: E-2A
Owner: JPL
Origin: None.
Measurement: Hemispherical reflectance
X Units: Wavelength (micrometers)
Y Units: Reflectance (percent)
wavelength	value
2.5	88.4685
2.494	88.3794
2.488	88.378
2.482	88.3941
2.476	88.4892
2.47	88.5788
2.464	88.4456
2.458	88.6137
2.452	88.6056
2.446	88.7331
2.44	88.9389
2.434	89.0569
2.428	89.2147
2.422	89.0682
2.416	88.9985
2.41	89.1768
2.404	89.2234
2.398	89.3406
2.392	89.4186
2.386	89.58
2.38	89.6489
2.374	89.6633
2.368	89.8343
2.362	89.8484
2.356	89.9097
2.35	89.9911
2.344	89.9811
2.338	89.9867
2.332	89.96
2.326	89.9742
2.32	89.917
2.314	89.8581
2.308	89.8774
2.302	89.8433
2.296	89.8786
2.29	89.9103
2.284	89.8637
2.278	89.8639
2.272	89.7861
2.266	89.8605
2.26	89.8737
2.254	89.8519
2.248	89.8238
2.242	89.868
2.236	89.9215
2.23	89.8671
2.224	89.9908
2.218	89.9824
2.212	90.3008
2.206	90.3253
2.2	90.4678
2.194	90.6167
2.188	90.5443
2.182	90.7199
2.176	90.7978
2.17	90.9583
2.164	91.2
2.158	91.2948
2.152	91.432
2.146	91.4694
2.14	91.3964
2.134	91.2962
2.128	91.1649
2.122	90.9315
2.116	90.7112
2.11	90.4207
2.104	90.102
2.098	90.0006
2.092	90.0917
2.086	90.1455
2.08	90.1735
2.074	90.33
2.068	90.3463
2.062	90.5012
2.056	90.6006
2.05	90.6913
2.044	90.655
2.038	90.8004
2.032	90.7858
2.026	90.7752
2.02	90.7862
2.014	90.8514
2.008	90.8709
2.002	90.821
1.996	90.8342
1.99	90.7675
1.984	90.7027
1.978	90.6011
1.972	90.5411
1.966	90.5707
1.96	90.6258
1.954	90.5271
1.948	90.6136
1.942	90.5539
1.936	90.6633
1.93	90.5188
1.924	90.7579
1.918	90.6496
1.912	90.8515
1.906	90.877
1.9	90.9587
1.894	91.141
1.888	91.1583
1.882	91.0625
1.876	91.1642
1.87	91.2185
1.864	91.317
1.858	91.3076
1.852	91.371
1.846	91.3896
1.84	91.4353
1.834	91.4082
1.828	91.4159
1.822	91.4992
1.816	91.4847
1.81	91.4464
1.804	91.4901
1.798	91.5737
1.792	91.3803
1.786	91.4823
1.78	91.4313
1.774	91.3902
1.768	91.4198
1.762	91.4873
1.756	91.3786
1.75	91.5007
1.744	91.5796
1.738	91.4836
1.732	91.5931
1.726	91.5029
1.72	91.5898
1.714	91.536
1.708	91.5261
1.702	91.4781
1.696	91.4986
1.69	91.5161
1.684	91.4647
1.678	91.5484
1.672	91.4248
1.666	91.5649
1.66	91.5556
1.654	91.5355
1.648	91.4639
1.642	91.5469
1.636	91.5278
1.63	91.4853
1.624	91.5585
1.618	91.5682
1.612	91.6015
1.606	91.5387
1.6	91.5632
1.594	91.5275
1.588	91.607
1.582	91.4976
1.576	91.4974
1.57	91.5131
1.564	91.4999
1.558	91.4881
1.552	91.5424
1.546	91.5683
1.54	91.5046
1.534	91.4972
1.528	91.5138
1.522	91.4866
1.516	91.4833
1.51	91.4252
1.504	91.4748
1.498	91.4397
1.492	91.4319
1.486	91.5178
1.48	91.3945
1.474	91.4444
1.468	91.4052
1.462	91.4396
1.456	91.3902
1.45	91.423
1.444	91.4544
1.438	91.3379
1.432	91.3625
1.426	91.3605
1.42	91.358
1.414	91.4318
1.408	91.407
1.402	91.3441
1.396	91.4562
1.39	91.5366
1.384	91.3428
1.378	91.4871
1.372	91.5283
1.366	91.5574
1.36	91.5844
1.354	91.4688
1.348	91.5056
1.342	91.4715
1.336	91.4459
1.33	91.3855
1.324	91.4421
1.318	91.457
1.312	91.3649
1.306	91.4069
1.3	91.4535
1.294	91.4273
1.288	91.4675
1.282	91.3781
1.276	91.3332
1.27	91.427
1.264	91.4069
1.258	91.4199
1.252	91.2802
1.246	91.3408
1.24	91.3262
1.234	91.2786
1.228	91.332
1.222	91.296
1.216	91.3405
1.21	91.267
1.204	91.3291
1.198	91.2921
1.192	91.3885
1.186	91.276
1.18	91.323
1.174	91.3223
1.168	91.3187
1.162	91.3719
1.156	91.3392
1.15	91.374
1.144	91.4219
1.138	91.3589
1.132	91.351
1.126	91.3829
1.12	91.3953
1.114	91.3884
1.108	91.4414
1.102	91.4468
1.096	91.4319
1.09	91.366
1.084	91.4501
1.078	91.4005
1.072	91.3834
1.066	91.4856
1.06	91.4566
1.054	91.4005
1.048	91.3929
1.042	91.5487
1.036	91.4564
1.03	91.4826
1.024	91.522
1.018	91.4294
1.012	91.5475
1.006	91.504
1	91.4907
0.994	91.4819
0.988	91.4585
0.982	91.5478
0.976	91.5233
0.97	91.5095
0.964	91.512
0.958	91.4959
0.952	91.5582
0.946	91.4885
0.94	91.5285
0.934	91.5015
0.928	91.5551
0.922	91.5577
0.916	91.486
0.91	91.4764
0.904	91.472
0.898	91.4408
0.892	91.4305
0.886	91.441
0.88	91.4243
0.874	91.3907
0.868	91.4569
0.862	91.3836
0.856	91.314
0.85	91.3961
0.844	91.336
0.838	91.3794
0.832	91.4118
0.826	91.3959
0.82	91.3503
0.814	91.3485
0.808	91.3783
0.802	91.3666
0.796	91.3351
0.79	91.3039
0.784	91.2884
0.778	91.2382
0.772	91.2623
0.766	91.2878
0.76	91.2259
0.754	91.2817
0.748	91.2653
0.742	91.254
0.736	91.2086
0.73	91.1942
0.724	91.1976
0.718	91.1709
0.712	91.1728
0.706	91.1723
0.7	91.1634
0.694	91.1473
0.688	91.1389
0.682	91.1542
0.676	91.114
0.67	91.1807
0.664	91.1778
0.658	91.1444
0.652	91.1369
0.646	91.1464
0.64	91.1453
0.634	91.1198
0.628	91.1169
0.622	91.1066
0.616	91.0937
0.61	91.0814
0.604	91.0524
0.598	91.0838
0.592	91.1275
0.586	91.0949
0.58	91.0883
0.574	91.0422
0.568	91.0264
0.562	90.9828
0.556	90.9226
0.55	90.8714
0.544	90.806
0.538	90.6962
0.532	90.537
0.526	90.3271
0.52	90.0167
0.514	89.5357
0.508	88.7849
0.502	87.6461
0.496	85.9838
0.49	83.4529
0.484	79.9671
0.478	75.6028
0.472	69.9315
0.466	63.0285
0.46	54.8971
0.454	45.8252
0.448	36.4631
0.442	27.5802
0.436	20.0258
0.43	14.0748
0.424	9.83901
0.418	7.13593
0.412	5.55323
0.406	4.74217
0.4	4.38966
