Name: Pyrite FeS_2
Type: Mineral
Class: Sulfides
Particle Size: 0-45um
Sample No.: S-2A
Owner: JPL
Origin: Italy, Tuscany, Elba, Rio Marina Isle.
Measurement: Hemispherical reflectance
X Units: Wavelength (micrometers)
Y Units: Reflectance (percent)
wavelength	value
2.5	6.71985
2.494	6.5343
2.488	6.6063
2.482	6.5866
2.476	6.69195
2.47	6.66221
2.464	6.76293
2.458	6.71694
2.452	6.79623
2.446	6.92389
2.44	6.83003
2.434	7.02424
2.428	6.97195
2.422	7.00074
2.416	7.14569
2.41	7.15844
2.404	7.19798
2.398	7.28214
2.392	7.2974
2.386	7.40594
2.38	7.49635
2.374	7.51733
2.368	7.6865
2.362	7.67468
2.356	7.82386
2.35	7.82688
2.344	7.87871
2.338	7.89087
2.332	7.91114
2.326	8.01363
2.32	8.04104
2.314	8.01187
2.308	8.06544
2.302	8.05085
2.296	8.03013
2.29	8.04847
2.284	8.10699
2.278	8.06888
2.272	8.0548
2.266	8.03116
2.26	8.12137
2.254	7.96198
2.248	8.00244
2.242	7.92445
2.236	7.98771
2.23	7.94563
2.224	7.99094
2.218	7.92366
2.212	7.93109
2.206	7.93342
2.2	7.93301
2.194	7.91415
2.188	7.91468
2.182	7.80193
2.176	7.87037
2.17	7.88741
2.164	7.85681
2.158	7.86306
2.152	7.86388
2.146	7.85062
2.14	7.82537
2.134	7.82011
2.128	7.74105
2.122	7.65297
2.116	7.67494
2.11	7.53021
2.104	7.5059
2.098	7.48723
2.092	7.50475
2.086	7.4442
2.08	7.4337
2.074	7.38858
2.068	7.32466
2.062	7.36972
2.056	7.35655
2.05	7.35365
2.044	7.32792
2.038	7.22367
2.032	7.23267
2.026	7.18525
2.02	7.13484
2.014	7.06449
2.008	7.14792
2.002	7.08674
1.996	7.19232
1.99	7.22813
1.984	7.28811
1.978	7.20096
1.972	7.30371
1.966	7.28667
1.96	7.35017
1.954	7.28003
1.948	7.28922
1.942	7.34134
1.936	7.31283
1.93	7.45058
1.924	7.58254
1.918	7.75483
1.912	7.8805
1.906	8.13281
1.9	8.28681
1.894	8.4396
1.888	8.44822
1.882	8.60065
1.876	8.63494
1.87	8.62166
1.864	8.77416
1.858	8.84429
1.852	8.86864
1.846	8.82249
1.84	8.89507
1.834	8.93777
1.828	8.96148
1.822	8.98233
1.816	9.03107
1.81	9.01685
1.804	9.08931
1.798	9.11191
1.792	9.19825
1.786	9.20126
1.78	9.18118
1.774	9.25478
1.768	9.25489
1.762	9.30027
1.756	9.42203
1.75	9.38195
1.744	9.47684
1.738	9.53092
1.732	9.58725
1.726	9.61494
1.72	9.61892
1.714	9.67999
1.708	9.72059
1.702	9.79694
1.696	9.76191
1.69	9.87067
1.684	9.90799
1.678	9.93718
1.672	10.0097
1.666	10.004
1.66	9.98026
1.654	10.1389
1.648	10.2258
1.642	10.2949
1.636	10.2092
1.63	10.2383
1.624	10.2686
1.618	10.2465
1.612	10.3244
1.606	10.2984
1.6	10.3363
1.594	10.406
1.588	10.4128
1.582	10.4806
1.576	10.4096
1.57	10.4555
1.564	10.4676
1.558	10.4826
1.552	10.4559
1.546	10.4575
1.54	10.4301
1.534	10.4879
1.528	10.4803
1.522	10.4232
1.516	10.4539
1.51	10.4309
1.504	10.3703
1.498	10.4249
1.492	10.353
1.486	10.3096
1.48	10.2464
1.474	10.1526
1.468	10.1196
1.462	10.1172
1.456	10.0667
1.45	9.92172
1.444	9.86875
1.438	9.79843
1.432	9.81301
1.426	9.68471
1.42	9.63037
1.414	9.51036
1.408	9.59434
1.402	9.45189
1.396	9.51037
1.39	9.42275
1.384	9.28398
1.378	9.15719
1.372	9.12303
1.366	9.0524
1.36	8.94194
1.354	8.90578
1.348	8.87868
1.342	8.84706
1.336	8.72574
1.33	8.65431
1.324	8.62422
1.318	8.54686
1.312	8.48108
1.306	8.58049
1.3	8.41454
1.294	8.38698
1.288	8.47942
1.282	8.35977
1.276	8.22993
1.27	8.19319
1.264	8.16964
1.258	8.17557
1.252	8.13629
1.246	8.0312
1.24	8.1256
1.234	8.06565
1.228	8.03211
1.222	8.01822
1.216	7.98432
1.21	7.98354
1.204	7.9488
1.198	7.93501
1.192	7.91698
1.186	7.92439
1.18	7.87775
1.174	7.87146
1.168	7.92333
1.162	7.90727
1.156	7.84843
1.15	7.83486
1.144	7.83455
1.138	7.8075
1.132	7.83259
1.126	7.82942
1.12	7.86292
1.114	7.86291
1.108	7.80487
1.102	7.89281
1.096	7.86466
1.09	7.8683
1.084	7.90414
1.078	7.86932
1.072	7.87837
1.066	7.89647
1.06	7.92792
1.054	7.90632
1.048	7.87824
1.042	7.89184
1.036	7.92404
1.03	7.94965
1.024	7.86959
1.018	7.9706
1.012	7.97145
1.006	7.99589
1	8.01329
0.994	8.02448
0.988	8.04882
0.982	8.04719
0.976	8.07672
0.97	8.12921
0.964	8.08328
0.958	8.10967
0.952	8.12997
0.946	8.23611
0.94	8.23912
0.934	8.19307
0.928	8.25181
0.922	8.25896
0.916	8.3474
0.91	8.35122
0.904	8.37953
0.898	8.36948
0.892	8.45292
0.886	8.4868
0.88	8.49574
0.874	8.63878
0.868	8.61503
0.862	8.67997
0.856	8.98215
0.85	9.05354
0.844	9.10925
0.838	9.16161
0.832	9.20587
0.826	9.25898
0.82	9.30871
0.814	9.36094
0.808	9.40044
0.802	9.45015
0.796	9.49878
0.79	9.54005
0.784	9.59232
0.778	9.63359
0.772	9.65956
0.766	9.69616
0.76	9.74995
0.754	9.7833
0.748	9.81805
0.742	9.86602
0.736	9.89756
0.73	9.94073
0.724	9.97211
0.718	9.98989
0.712	10.0112
0.706	10.0138
0.7	10.0125
0.694	10.0109
0.688	9.99477
0.682	9.97325
0.676	9.95304
0.67	9.92831
0.664	9.89294
0.658	9.85503
0.652	9.81864
0.646	9.78161
0.64	9.74893
0.634	9.71739
0.628	9.69359
0.622	9.67039
0.616	9.6511
0.61	9.63527
0.604	9.61727
0.598	9.60442
0.592	9.59037
0.586	9.55779
0.58	9.52509
0.574	9.48192
0.568	9.43457
0.562	9.38651
0.556	9.31884
0.55	9.26173
0.544	9.20084
0.538	9.14119
0.532	9.08486
0.526	9.03211
0.52	8.97707
0.514	8.91663
0.508	8.8467
0.502	8.76621
0.496	8.68188
0.49	8.56804
0.484	8.438
0.478	8.31696
0.472	8.19631
0.466	8.06498
0.46	7.94034
0.454	7.81325
0.448	7.68437
0.442	7.55121
0.436	7.3877
0.43	7.09605
0.424	6.87122
0.418	6.69176
0.412	6.49386
0.406	6.1971
0.4	5.74988
