Name: Beryl Be_3Al_2Si_6O_18
Type: Mineral
Class: Silicates
Subclass: Cyclosilicates
Particle Size: 125-500um
Sample No.: CS-2A
Owner: JPL
Wavelength Range: VNIR-SWIR
Origin: Brazil, Minas Gerais
Measurement: Hemispherical reflectance
X Units: Wavelength (micrometers)
Y Units: Reflectance (percent)
wavelength	value
0.4	59.93
0.403	60.09
0.406	60.14
0.409	60.22
0.412	60.31
0.415	60.39
0.418	60.18
0.421	59.74
0.424	59.62
0.427	60
0.43	60.7
0.433	61.15
0.436	61.38
0.439	61.85
0.442	61.87
0.445	61.95
0.448	61.99
0.451	62.21
0.454	62.32
0.457	62.22
0.46	62.44
0.463	62.55
0.466	62.47
0.469	62.47
0.472	62.57
0.475	62.7
0.478	62.53
0.481	62.47
0.484	62.59
0.487	62.53
0.49	62.5
0.493	62.45
0.496	62.36
0.499	62.36
0.502	62.4
0.505	62.34
0.508	62.09
0.511	62.13
0.514	62.2
0.517	62.07
0.52	61.94
0.523	61.94
0.526	61.88
0.529	61.75
0.532	61.61
0.535	61.55
0.538	61.47
0.541	61.33
0.544	61.27
0.547	61.28
0.55	61.06
0.553	60.93
0.556	60.85
0.559	60.85
0.562	61.01
0.565	60.78
0.568	60.49
0.571	60.39
0.574	60.21
0.577	59.95
0.58	59.83
0.583	59.8
0.586	59.82
0.589	59.6
0.592	59.58
0.595	59.48
0.598	59.32
0.601	59.26
0.604	59.25
0.607	59.13
0.61	58.95
0.613	58.83
0.616	58.68
0.619	58.45
0.622	58.33
0.625	58.11
0.628	58.07
0.631	57.88
0.634	57.71
0.637	57.52
0.64	57.46
0.643	57.2
0.646	57.05
0.649	56.74
0.652	56.74
0.655	56.56
0.658	56.26
0.661	55.9
0.664	55.84
0.667	55.49
0.67	55.21
0.673	55.03
0.676	54.72
0.679	54.36
0.682	54.04
0.685	53.79
0.688	53.46
0.691	52.9
0.694	52.61
0.697	52.24
0.7	51.87
0.703	50.93
0.706	50.53
0.709	50.06
0.712	49.63
0.715	49
0.718	48.51
0.721	48.05
0.724	47.36
0.727	46.87
0.73	46.3
0.733	45.8
0.736	45.29
0.739	44.72
0.742	44.11
0.745	43.6
0.748	43.17
0.751	42.77
0.754	42
0.757	41.57
0.76	41.23
0.763	40.83
0.766	40.22
0.769	39.77
0.772	39.52
0.775	39.22
0.778	38.73
0.781	38.41
0.784	38.11
0.787	37.92
0.79	37.49
0.793	37.33
0.796	37.27
0.799	37.28
0.808	37.1
0.82	36.92
0.832	37.36
0.844	38.19
0.856	39.45
0.868	40.98
0.88	42.67
0.892	44.52
0.904	46.24
0.916	47.85
0.928	49.21
0.94	50.36
0.952	50.48
0.964	52.34
0.976	53.21
0.988	54.03
1	54.75
1.012	55.4
1.024	55.98
1.036	56.65
1.048	57.18
1.06	57.94
1.072	58.62
1.084	59.21
1.096	59.66
1.108	60.05
1.12	59.28
1.132	60.09
1.144	54.96
1.156	61.01
1.168	61.38
1.18	62.16
1.192	62.32
1.204	62.73
1.216	62.81
1.228	62.94
1.24	63.12
1.252	63.2
1.264	63.34
1.276	63.33
1.288	63.38
1.3	63.25
1.312	63.01
1.324	62.25
1.336	61.11
1.348	57.33
1.36	49.92
1.372	51.75
1.384	50.24
1.396	31.23
1.408	47.05
1.42	52.29
1.432	54.83
1.444	59.14
1.456	56.07
1.468	58.95
1.48	62.81
1.492	63.04
1.504	63.39
1.516	64.02
1.528	64.31
1.54	64.5
1.552	64.53
1.564	64.58
1.576	64.69
1.588	64.63
1.6	64.64
1.612	64.74
1.624	64.67
1.636	64.69
1.648	64.6
1.66	64.61
1.672	64.58
1.684	64.4
1.696	64.36
1.708	64.21
1.72	63.95
1.732	63.64
1.744	63.06
1.756	62.32
1.768	60.93
1.78	59.03
1.792	56.57
1.804	51.12
1.816	41.86
1.828	36.43
1.84	37.83
1.852	41.61
1.864	41.87
1.876	33.51
1.888	22.82
1.9	28.96
1.912	40.98
1.924	45.14
1.936	44.9
1.948	44.07
1.96	45.56
1.972	50.07
1.984	55.16
1.996	57.94
2.008	59.08
2.02	59.35
2.032	58.88
2.044	57.92
2.056	57.74
2.068	58.1
2.08	58.73
2.092	59.54
2.104	60.18
2.116	60.1
2.128	59.17
2.14	57.75
2.152	57.55
2.164	58.34
2.176	58.45
2.188	58.14
2.2	58.49
2.212	59.21
2.224	59.64
2.236	59.58
2.248	59.35
2.26	58.93
2.272	58.42
2.284	57.81
2.296	56.99
2.308	55.71
2.32	54.47
2.332	53.17
2.344	52.05
2.356	51.11
2.368	50.21
2.38	49.56
2.392	48.73
2.404	47.68
2.416	46.01
2.428	43.88
2.44	41.53
2.452	38.62
2.464	35.55
2.476	32.29
2.488	28.92
2.5	25.46
