Name: Enstatite Mg_2(SiO_3)_2
Type: Mineral
Class: Silicates
Subclass: Inosilicates
Particle Size: 0-45um
Sample No.: IN-10B
Owner: JPL
Origin: Norway, Telemark.
Measurement: Hemispherical reflectance
X Units: Wavelength (micrometers)
Y Units: Reflectance (percent)
wavelength	value
2.5	35.1335
2.494	35.2848
2.488	35.1411
2.482	35.0535
2.476	34.9901
2.47	34.9748
2.464	34.9403
2.458	34.8924
2.452	34.7943
2.446	34.7494
2.44	34.8285
2.434	34.7295
2.428	34.7256
2.422	34.7327
2.416	34.6677
2.41	34.5039
2.404	34.442
2.398	34.3156
2.392	34.2488
2.386	34.2479
2.38	34.2566
2.374	34.361
2.368	34.5416
2.362	34.6232
2.356	34.7564
2.35	34.7859
2.344	34.8167
2.338	34.7526
2.332	34.656
2.326	34.4118
2.32	34.0794
2.314	33.7037
2.308	33.5953
2.302	33.6048
2.296	33.7294
2.29	33.9451
2.284	34.1429
2.278	34.3871
2.272	34.5122
2.266	34.6246
2.26	34.7169
2.254	34.7947
2.248	34.8626
2.242	34.7915
2.236	34.8555
2.23	34.8963
2.224	34.8985
2.218	34.9567
2.212	34.9753
2.206	34.9428
2.2	35.0294
2.194	35.0278
2.188	35.0252
2.182	35.0227
2.176	35.1074
2.17	35.0589
2.164	35.0929
2.158	35.03
2.152	35.072
2.146	35.0184
2.14	34.9522
2.134	34.7533
2.128	34.6765
2.122	34.4745
2.116	34.2826
2.11	34.1127
2.104	33.9252
2.098	33.7033
2.092	33.6977
2.086	33.6523
2.08	33.5388
2.074	33.458
2.068	33.3302
2.062	33.3076
2.056	33.207
2.05	33.1439
2.044	33.0436
2.038	32.8717
2.032	32.8212
2.026	32.6958
2.02	32.4907
2.014	32.3833
2.008	32.2829
2.002	32.1456
1.996	32.0193
1.99	31.8944
1.984	31.7606
1.978	31.5881
1.972	31.5154
1.966	31.4279
1.96	31.2947
1.954	31.1801
1.948	31.1426
1.942	31.0488
1.936	30.9611
1.93	30.8947
1.924	30.9433
1.918	30.8274
1.912	30.8262
1.906	30.7712
1.9	30.8154
1.894	30.8552
1.888	30.8905
1.882	30.9103
1.876	30.8617
1.87	30.9315
1.864	30.9993
1.858	30.996
1.852	31.0089
1.846	31.0264
1.84	31.0906
1.834	31.1724
1.828	31.1542
1.822	31.2675
1.816	31.2639
1.81	31.4005
1.804	31.513
1.798	31.5689
1.792	31.6114
1.786	31.7455
1.78	31.8471
1.774	31.9104
1.768	32.0312
1.762	32.1925
1.756	32.254
1.75	32.4692
1.744	32.5896
1.738	32.7589
1.732	32.9271
1.726	33.0289
1.72	33.2478
1.714	33.3104
1.708	33.4878
1.702	33.6589
1.696	33.9246
1.69	34.0761
1.684	34.1954
1.678	34.3754
1.672	34.5979
1.666	34.6995
1.66	34.9616
1.654	35.1058
1.648	35.3348
1.642	35.6068
1.636	35.6728
1.63	35.9249
1.624	36.1184
1.618	36.258
1.612	36.5106
1.606	36.6679
1.6	36.8967
1.594	36.9586
1.588	37.1466
1.582	37.4237
1.576	37.5946
1.57	37.7484
1.564	37.8723
1.558	38.0681
1.552	38.2204
1.546	38.3624
1.54	38.549
1.534	38.7033
1.528	38.8034
1.522	38.9825
1.516	39.1376
1.51	39.2615
1.504	39.3917
1.498	39.5465
1.492	39.6602
1.486	39.7429
1.48	39.9042
1.474	39.9846
1.468	40.1353
1.462	40.1838
1.456	40.3032
1.45	40.3521
1.444	40.4897
1.438	40.5742
1.432	40.5849
1.426	40.6562
1.42	40.6882
1.414	40.762
1.408	40.818
1.402	40.8446
1.396	39.799
1.39	40.805
1.384	41.1995
1.378	41.2685
1.372	41.3046
1.366	41.3513
1.36	41.3866
1.354	41.4414
1.348	41.4064
1.342	41.4727
1.336	41.4442
1.33	41.5089
1.324	41.5278
1.318	41.508
1.312	41.5936
1.306	41.5995
1.3	41.597
1.294	41.5682
1.288	41.6083
1.282	41.5843
1.276	41.5816
1.27	41.5856
1.264	41.6033
1.258	41.6315
1.252	41.6078
1.246	41.5487
1.24	41.5635
1.234	41.5812
1.228	41.487
1.222	41.4857
1.216	41.5197
1.21	41.4862
1.204	41.4857
1.198	41.4688
1.192	41.4725
1.186	41.3854
1.18	41.4815
1.174	41.4525
1.168	41.3771
1.162	41.3758
1.156	41.303
1.15	41.2657
1.144	41.2918
1.138	41.1995
1.132	41.2368
1.126	41.1575
1.12	41.063
1.114	40.9664
1.108	40.8459
1.102	40.7124
1.096	40.5214
1.09	40.3779
1.084	40.1356
1.078	39.9235
1.072	39.6264
1.066	39.1391
1.06	38.6949
1.054	38.1602
1.048	37.538
1.042	36.9215
1.036	36.0757
1.03	35.2672
1.024	34.3226
1.018	33.2444
1.012	32.2064
1.006	31.0736
1	29.8338
0.994	28.7313
0.988	27.5659
0.982	26.5054
0.976	25.4655
0.97	24.4907
0.964	23.6566
0.958	22.9703
0.952	22.372
0.946	21.863
0.94	21.4936
0.934	21.146
0.928	20.9436
0.922	20.8442
0.916	20.8528
0.91	20.9174
0.904	21.1886
0.898	21.4582
0.892	21.8263
0.886	22.2885
0.88	22.7513
0.874	23.3467
0.868	24.0022
0.862	24.73
0.856	26.2159
0.85	27.0849
0.844	28.0091
0.838	29.013
0.832	30.0501
0.826	31.0426
0.82	32.1565
0.814	33.1827
0.808	34.2353
0.802	35.2271
0.796	36.1103
0.79	36.8772
0.784	37.6649
0.778	38.3174
0.772	38.9434
0.766	39.4181
0.76	39.8703
0.754	40.2506
0.748	40.5345
0.742	40.7954
0.736	40.9782
0.73	41.1585
0.724	41.258
0.718	41.3437
0.712	41.4139
0.706	41.4406
0.7	41.4552
0.694	41.4555
0.688	41.4664
0.682	41.4535
0.676	41.4341
0.67	41.4054
0.664	41.392
0.658	41.3512
0.652	41.3289
0.646	41.2969
0.64	41.2569
0.634	41.23
0.628	41.1879
0.622	41.1297
0.616	41.0905
0.61	41.0504
0.604	41.0064
0.598	40.9824
0.592	40.9416
0.586	40.893
0.58	40.8218
0.574	40.7553
0.568	40.6681
0.562	40.5559
0.556	40.4224
0.55	40.2028
0.544	40.1176
0.538	40.1519
0.532	40.1106
0.526	39.9995
0.52	39.8578
0.514	39.6684
0.508	39.195
0.502	39.0468
0.496	39.0313
0.49	38.8422
0.484	38.598
0.478	38.2654
0.472	38.0005
0.466	37.7649
0.46	37.5612
0.454	37.3295
0.448	37.0748
0.442	36.8134
0.436	36.5052
0.43	35.9537
0.424	35.5157
0.418	35.1914
0.412	34.6996
0.406	34.1939
0.4	33.5375
