Name: Smithsonite PbCO_3
Type: Mineral
Class: Carbonates
Particle Size: 125-500um
Sample No.: C-11A
Owner: JPL
Wavelength Range: VNIR-SWIR
Measurement: Hemispherical reflectance
X Units: Wavelength (micrometers)
Y Units: Reflectance (percent)
wavelength	value
0.4	69
0.403	70.55
0.406	71.31
0.409	71.39
0.412	72.26
0.415	73.08
0.418	73.62
0.421	74.31
0.424	75
0.427	75.65
0.43	76.19
0.433	76.56
0.436	77.06
0.439	77.49
0.442	77.81
0.445	78.05
0.448	78.22
0.451	78.48
0.454	78.46
0.457	78.66
0.46	78.68
0.463	78.43
0.466	78.21
0.469	78.03
0.472	77.66
0.475	77.41
0.478	77.34
0.481	77.05
0.484	77.22
0.487	77.36
0.49	77.38
0.493	77.36
0.496	77.09
0.499	77.04
0.502	76.67
0.505	76.51
0.508	76.31
0.511	75.98
0.514	75.88
0.517	75.91
0.52	75.86
0.523	75.92
0.526	76.07
0.529	76.2
0.532	76.48
0.535	76.56
0.538	76.88
0.541	76.96
0.544	77.36
0.547	77.75
0.55	78.41
0.553	79.01
0.556	79.59
0.559	80.08
0.562	81.32
0.565	81.81
0.568	82.36
0.571	82.77
0.574	83.01
0.577	83.55
0.58	83.61
0.583	83.76
0.586	83.8
0.589	83.82
0.592	83.98
0.595	83.94
0.598	83.87
0.601	83.7
0.604	83.54
0.607	83.46
0.61	83.16
0.613	83.03
0.616	82.71
0.619	82.45
0.622	82.18
0.625	81.95
0.628	81.71
0.631	81.41
0.634	81.08
0.637	80.78
0.64	80.59
0.643	80.26
0.646	79.99
0.649	79.64
0.652	79.47
0.655	79.05
0.658	78.75
0.661	78.47
0.664	78.12
0.667	77.74
0.67	77.39
0.673	77.22
0.676	76.87
0.679	76.51
0.682	76.18
0.685	75.88
0.688	75.67
0.691	75.3
0.694	75.06
0.697	74.7
0.7	74.37
0.703	74.05
0.706	73.69
0.709	73.56
0.712	73.15
0.715	72.91
0.718	72.58
0.721	72.26
0.724	72.07
0.727	71.63
0.73	71.38
0.733	71.09
0.736	70.76
0.739	70.54
0.742	70.2
0.745	69.95
0.748	69.57
0.751	69.33
0.754	69.09
0.757	68.65
0.76	68.41
0.763	68.03
0.766	67.84
0.769	67.45
0.772	67.09
0.775	66.76
0.778	66.52
0.781	66.14
0.784	65.77
0.787	65.56
0.79	65.24
0.793	64.97
0.796	64.65
0.799	64.37
0.808	63.23
0.82	61.86
0.832	60.43
0.844	59.17
0.856	57.88
0.868	56.66
0.88	55.59
0.892	54.58
0.904	53.79
0.916	53.14
0.928	52.69
0.94	52.33
0.952	52.24
0.964	52.41
0.976	52.59
0.988	53.02
1	53.51
1.012	54.34
1.024	55.26
1.036	56.18
1.048	57.3
1.06	58.29
1.072	59.32
1.084	60.31
1.096	61.26
1.108	62.03
1.12	62.89
1.132	63.5
1.144	64.08
1.156	64.48
1.168	64.99
1.18	65.52
1.192	65.99
1.204	66.54
1.216	67.13
1.228	67.85
1.24	68.62
1.252	69.34
1.264	70.21
1.276	71.07
1.288	71.86
1.3	72.62
1.312	73.41
1.324	74.05
1.336	74.76
1.348	75.27
1.36	75.91
1.372	76.18
1.384	76.32
1.396	75.95
1.408	74.69
1.42	74.38
1.432	74.24
1.444	74.07
1.456	73.92
1.468	73.93
1.48	73.9
1.492	73.97
1.504	73.94
1.516	73.98
1.528	73.93
1.54	73.94
1.552	73.77
1.564	73.68
1.576	73.58
1.588	73.67
1.6	73.62
1.612	73.45
1.624	73.25
1.636	73.06
1.648	72.76
1.66	72.49
1.672	72.37
1.684	72.04
1.696	71.78
1.708	71.34
1.72	70.94
1.732	70.58
1.744	70.17
1.756	70
1.768	69.79
1.78	69.73
1.792	69.6
1.804	69.26
1.816	68.62
1.828	67.86
1.84	67.03
1.852	66.17
1.864	65.04
1.876	63.12
1.888	61.37
1.9	60.84
1.912	59.99
1.924	58.79
1.936	57.94
1.948	57.32
1.96	56.7
1.972	56.25
1.984	55.75
1.996	55.13
2.008	55.22
2.02	56.28
2.032	57.01
2.044	57.29
2.056	57.56
2.068	57.72
2.08	57.87
2.092	58
2.104	58.1
2.116	58.13
2.128	57.86
2.14	57.23
2.152	56.53
2.164	56.45
2.176	56.75
2.188	56.74
2.2	56.2
2.212	55.09
2.224	53.65
2.236	51.79
2.248	49.71
2.26	47.31
2.272	44.89
2.284	42.07
2.296	39.21
2.308	36.55
2.32	35.02
2.332	34.02
2.344	32.85
2.356	31.96
2.368	33.15
2.38	37.48
2.392	41.69
2.404	43.22
2.416	42.35
2.428	40.51
2.44	38.35
2.452	35.65
2.464	32.61
2.476	29.62
2.488	27.3
2.5	25.7
