Name: Anglesite PbSO_4
Type: Mineral
Class: Sulfates
Particle Size: 0-45um
Sample No.: SO-10A
Owner: JPL
Origin: USA, Arizona, Santa Cruz County, Glove Mine.
Measurement: Hemispherical reflectance
X Units: Wavelength (micrometers)
Y Units: Reflectance (percent)
wavelength	value
2.5	69.9805
2.494	70.3069
2.488	70.266
2.482	70.1695
2.476	70.2433
2.47	70.3861
2.464	70.4052
2.458	70.31
2.452	70.4115
2.446	70.3531
2.44	70.5062
2.434	70.4565
2.428	70.4319
2.422	70.5578
2.416	70.5609
2.41	70.542
2.404	70.5683
2.398	70.532
2.392	70.7358
2.386	70.7651
2.38	70.9094
2.374	70.8413
2.368	70.955
2.362	71.045
2.356	71.1586
2.35	71.1074
2.344	71.1267
2.338	71.121
2.332	71.0628
2.326	71.0515
2.32	71.0304
2.314	70.9624
2.308	70.8968
2.302	70.8663
2.296	70.8825
2.29	70.8302
2.284	70.8606
2.278	70.7577
2.272	70.7809
2.266	70.7516
2.26	70.6405
2.254	70.6087
2.248	70.6207
2.242	70.5827
2.236	70.6604
2.23	70.6241
2.224	70.626
2.218	70.6853
2.212	70.7973
2.206	70.906
2.2	70.9345
2.194	70.9621
2.188	71.0014
2.182	71.0722
2.176	71.2272
2.17	71.2951
2.164	71.4083
2.158	71.5441
2.152	71.5452
2.146	71.6259
2.14	71.6115
2.134	71.4231
2.128	71.3752
2.122	71.1537
2.116	70.9
2.11	70.6392
2.104	70.4713
2.098	70.3038
2.092	70.3681
2.086	70.3366
2.08	70.4531
2.074	70.4254
2.068	70.5504
2.062	70.5827
2.056	70.6708
2.05	70.6981
2.044	70.7334
2.038	70.7443
2.032	70.7765
2.026	70.7633
2.02	70.7676
2.014	70.7517
2.008	70.81
2.002	70.7586
1.996	70.7598
1.99	70.6634
1.984	70.5837
1.978	70.4715
1.972	70.5093
1.966	70.4927
1.96	70.4051
1.954	70.4085
1.948	70.4369
1.942	70.3932
1.936	70.4437
1.93	70.4683
1.924	70.4863
1.918	70.5805
1.912	70.663
1.906	70.6633
1.9	70.7652
1.894	70.7957
1.888	70.8694
1.882	70.9097
1.876	70.8885
1.87	70.8983
1.864	70.9479
1.858	70.9125
1.852	71.0045
1.846	70.9436
1.84	70.9844
1.834	71.0284
1.828	71.0233
1.822	71.0272
1.816	71.0246
1.81	71.0052
1.804	71.0472
1.798	71.0398
1.792	70.964
1.786	71.0123
1.78	70.8945
1.774	70.9716
1.768	70.946
1.762	70.9496
1.756	70.94
1.75	70.9811
1.744	70.9879
1.738	70.9552
1.732	71.0659
1.726	71.0266
1.72	71.03
1.714	70.9366
1.708	70.9179
1.702	70.9127
1.696	70.9669
1.69	70.9484
1.684	70.8626
1.678	70.9246
1.672	70.8637
1.666	70.8699
1.66	70.9016
1.654	70.8142
1.648	70.8908
1.642	70.8411
1.636	70.9004
1.63	70.7841
1.624	70.8305
1.618	70.8436
1.612	70.8512
1.606	70.8697
1.6	70.8553
1.594	70.8268
1.588	70.8261
1.582	70.8292
1.576	70.8161
1.57	70.8112
1.564	70.7666
1.558	70.7898
1.552	70.7561
1.546	70.7835
1.54	70.7486
1.534	70.6789
1.528	70.5864
1.522	70.6651
1.516	70.6068
1.51	70.5903
1.504	70.6558
1.498	70.6238
1.492	70.5825
1.486	70.5253
1.48	70.5134
1.474	70.4889
1.468	70.4989
1.462	70.4765
1.456	70.515
1.45	70.4647
1.444	70.3456
1.438	70.5029
1.432	70.4149
1.426	70.3832
1.42	70.3148
1.414	70.3338
1.408	70.3152
1.402	70.3412
1.396	70.3716
1.39	70.3847
1.384	70.3322
1.378	70.2999
1.372	70.3949
1.366	70.2838
1.36	70.2739
1.354	70.2617
1.348	70.2633
1.342	70.1968
1.336	70.1855
1.33	70.0565
1.324	70.0988
1.318	70.0671
1.312	70.0193
1.306	69.9726
1.3	69.9165
1.294	69.87
1.288	69.7992
1.282	69.7762
1.276	69.7205
1.27	69.5966
1.264	69.6123
1.258	69.3924
1.252	69.3732
1.246	69.2701
1.24	69.14
1.234	69.0422
1.228	68.8559
1.222	68.6864
1.216	68.5998
1.21	68.4048
1.204	68.3454
1.198	68.0675
1.192	67.9157
1.186	67.7715
1.18	67.6171
1.174	67.4671
1.168	67.3439
1.162	67.1284
1.156	66.9205
1.15	66.824
1.144	66.6277
1.138	66.5391
1.132	66.3842
1.126	66.2099
1.12	66.1232
1.114	66.0218
1.108	65.9157
1.102	65.7558
1.096	65.6438
1.09	65.5707
1.084	65.4159
1.078	65.3115
1.072	65.22
1.066	65.1463
1.06	64.9947
1.054	64.8277
1.048	64.7237
1.042	64.649
1.036	64.566
1.03	64.4038
1.024	64.3783
1.018	64.2415
1.012	64.0096
1.006	63.9765
1	63.8456
0.994	63.6662
0.988	63.5257
0.982	63.4393
0.976	63.2896
0.97	63.1663
0.964	62.9992
0.958	62.9058
0.952	62.7585
0.946	62.5902
0.94	62.4835
0.934	62.301
0.928	62.1323
0.922	62.0175
0.916	61.9165
0.91	61.6647
0.904	61.5335
0.898	61.3807
0.892	61.2151
0.886	61.1464
0.88	60.9509
0.874	60.8465
0.868	60.7024
0.862	60.6198
0.856	60.7072
0.85	60.5747
0.844	60.4781
0.838	60.3532
0.832	60.1966
0.826	60.0808
0.82	59.8881
0.814	59.7764
0.808	59.6685
0.802	59.5431
0.796	59.315
0.79	59.1519
0.784	59.0374
0.778	58.9
0.772	58.7043
0.766	58.534
0.76	58.3763
0.754	58.2464
0.748	58.0484
0.742	57.8912
0.736	57.6934
0.73	57.4989
0.724	57.2749
0.718	57.0703
0.712	56.8413
0.706	56.6043
0.7	56.361
0.694	56.1464
0.688	55.8757
0.682	55.6498
0.676	55.3936
0.67	55.1471
0.664	54.8881
0.658	54.639
0.652	54.3981
0.646	54.1392
0.64	53.8887
0.634	53.6449
0.628	53.3868
0.622	53.1212
0.616	52.8522
0.61	52.578
0.604	52.2607
0.598	51.9498
0.592	51.6114
0.586	51.2041
0.58	50.7787
0.574	50.3307
0.568	49.8307
0.562	49.3541
0.556	48.8611
0.55	48.3693
0.544	47.8989
0.538	47.4281
0.532	46.9748
0.526	46.4972
0.52	46.0411
0.514	45.5524
0.508	45.0588
0.502	44.5669
0.496	44.0525
0.49	43.549
0.484	43.022
0.478	42.564
0.472	42.1164
0.466	41.672
0.46	41.2751
0.454	40.8811
0.448	40.5075
0.442	40.0907
0.436	39.6476
0.43	39.2251
0.424	38.7596
0.418	38.3272
0.412	37.9312
0.406	37.5354
0.4	37.1302
