Name: Cassiterite SnO_2
Type: Mineral
Class: Oxides
Particle Size: 125-500um
Sample No.: O-3A
Owner: JPL
Wavelength Range: VNIR-SWIR
Origin: USA, South Dakota, Lawrence County, Tinton
Measurement: Hemispherical reflectance
X Units: Wavelength (micrometers)
Y Units: Reflectance (percent)
wavelength	value
0.4	5.35
0.403	5.4
0.406	5.27
0.409	5.15
0.412	5.33
0.415	5.27
0.418	5.28
0.421	5.32
0.424	5.33
0.427	5.2
0.43	5.08
0.433	5.26
0.436	5.13
0.439	5.2
0.442	5.27
0.445	5.5
0.448	5.37
0.451	5.12
0.454	5.12
0.457	4.98
0.46	4.98
0.463	4.95
0.466	5
0.469	5.02
0.472	4.96
0.475	4.9
0.478	4.9
0.481	4.89
0.484	4.87
0.487	4.92
0.49	4.96
0.493	4.99
0.496	4.85
0.499	4.84
0.502	4.88
0.505	4.89
0.508	4.89
0.511	4.93
0.514	4.93
0.517	4.81
0.52	4.82
0.523	4.83
0.526	4.78
0.529	4.71
0.532	4.83
0.535	4.93
0.538	4.82
0.541	4.82
0.544	4.74
0.547	4.77
0.55	4.7
0.553	4.82
0.556	4.83
0.559	4.75
0.562	4.83
0.565	4.76
0.568	4.87
0.571	4.89
0.574	4.75
0.577	4.71
0.58	4.78
0.583	4.79
0.586	4.86
0.589	4.73
0.592	4.74
0.595	4.73
0.598	4.7
0.601	4.73
0.604	4.81
0.607	4.82
0.61	4.86
0.613	4.85
0.616	4.74
0.619	4.73
0.622	4.8
0.625	4.79
0.628	4.85
0.631	4.8
0.634	4.87
0.637	4.75
0.64	4.8
0.643	4.86
0.646	4.81
0.649	4.79
0.652	4.92
0.655	4.86
0.658	4.81
0.661	4.8
0.664	4.8
0.667	4.85
0.67	4.87
0.673	4.92
0.676	4.81
0.679	4.85
0.682	4.81
0.685	4.85
0.688	4.91
0.691	4.91
0.694	4.93
0.697	4.97
0.7	4.89
0.703	4.86
0.706	4.91
0.709	4.9
0.712	4.97
0.715	4.8
0.718	5.02
0.721	5.01
0.724	4.92
0.727	4.95
0.73	4.96
0.733	4.96
0.736	4.84
0.739	5.08
0.742	5.06
0.745	5.02
0.748	5.01
0.751	4.95
0.754	4.96
0.757	4.83
0.76	5.01
0.763	5.06
0.766	5.01
0.769	5
0.772	5
0.775	5.01
0.778	4.95
0.781	5.06
0.784	5.23
0.787	5.22
0.79	5.23
0.793	5.11
0.796	5.06
0.799	4.92
0.808	5.31
0.82	5.26
0.832	5.26
0.844	5.27
0.856	5.28
0.868	5.17
0.88	5.3
0.892	5.22
0.904	5.22
0.916	5.28
0.928	5.16
0.94	5.22
0.952	5.18
0.964	5.29
0.976	5.16
0.988	5.27
1	5.23
1.012	5.27
1.024	5.23
1.036	5.23
1.048	5.1
1.06	5.15
1.072	5.13
1.084	5.11
1.096	5.09
1.108	5.08
1.12	5.02
1.132	5.07
1.144	4.95
1.156	4.93
1.168	4.98
1.18	4.81
1.192	4.84
1.204	4.79
1.216	4.86
1.228	4.82
1.24	4.84
1.252	4.76
1.264	4.83
1.276	4.74
1.288	4.76
1.3	4.72
1.312	4.71
1.324	4.77
1.336	4.66
1.348	4.75
1.36	4.61
1.372	4.64
1.384	4.55
1.396	4.65
1.408	4.54
1.42	4.61
1.432	4.64
1.444	4.48
1.456	4.6
1.468	4.53
1.48	4.6
1.492	4.48
1.504	4.5
1.516	4.44
1.528	4.42
1.54	4.41
1.552	4.43
1.564	4.43
1.576	4.42
1.588	4.32
1.6	4.38
1.612	4.37
1.624	4.29
1.636	4.34
1.648	4.3
1.66	4.36
1.672	4.31
1.684	4.25
1.696	4.31
1.708	4.3
1.72	4.31
1.732	4.24
1.744	4.3
1.756	4.2
1.768	4.24
1.78	4.29
1.792	4.25
1.804	4.23
1.816	4.22
1.828	4.16
1.84	4.2
1.852	4.22
1.864	4.22
1.876	4.25
1.888	4.19
1.9	4.19
1.912	4.21
1.924	4.13
1.936	4.18
1.948	4.17
1.96	4.21
1.972	4.16
1.984	4.19
1.996	4.2
2.008	4.23
2.02	4.28
2.032	4.22
2.044	4.22
2.056	4.26
2.068	4.25
2.08	4.21
2.092	4.26
2.104	4.2
2.116	4.28
2.128	4.26
2.14	4.23
2.152	4.23
2.164	4.22
2.176	4.2
2.188	4.2
2.2	4.21
2.212	4.22
2.224	4.22
2.236	4.15
2.248	4.27
2.26	4.22
2.272	4.26
2.284	4.21
2.296	4.28
2.308	4.21
2.32	4.27
2.332	4.23
2.344	4.23
2.356	4.21
2.368	4.15
2.38	4.2
2.392	4.15
2.404	4.2
2.416	4.2
2.428	4.09
2.44	4.19
2.452	4.14
2.464	4.2
2.476	4.13
2.488	4.06
2.5	4.23
