Name: Glauberite Na_2Ca(SO_4)_2
Type: Mineral
Class: Sulfates
Particle Size: 125-500um
Sample No.: SO-8A
Owner: JPL
Wavelength Range: VNIR-SWIR
Origin: USA, Arizona, Yavapai County, Campe Verde
Measurement: Hemispherical reflectance
X Units: Wavelength (micrometers)
Y Units: Reflectance (percent)
wavelength	value
0.4	56.89
0.403	57.32
0.406	57.58
0.409	57.77
0.412	58.25
0.415	58.5
0.418	58.8
0.421	59.02
0.424	59.23
0.427	59.5
0.43	59.9
0.433	60.14
0.436	60.38
0.439	60.67
0.442	60.93
0.445	61.05
0.448	61.21
0.451	61.62
0.454	61.8
0.457	61.95
0.46	62.13
0.463	62.41
0.466	62.59
0.469	62.63
0.472	62.77
0.475	63.02
0.478	63.24
0.481	63.24
0.484	63.38
0.487	63.46
0.49	63.56
0.493	63.62
0.496	63.99
0.499	64.16
0.502	64.13
0.505	64.42
0.508	64.54
0.511	64.72
0.514	64.7
0.517	64.99
0.52	65.23
0.523	65.34
0.526	65.36
0.529	65.47
0.532	65.52
0.535	65.58
0.538	65.95
0.541	65.83
0.544	66.04
0.547	66.12
0.55	66.36
0.553	66.47
0.556	66.79
0.559	66.89
0.562	67.13
0.565	67.04
0.568	67.17
0.571	67.1
0.574	67.2
0.577	67.02
0.58	67.15
0.583	67.16
0.586	67.3
0.589	67.53
0.592	67.72
0.595	67.74
0.598	67.6
0.601	67.83
0.604	67.96
0.607	67.86
0.61	68.05
0.613	67.96
0.616	68.04
0.619	68.01
0.622	68.05
0.625	68.11
0.628	68.22
0.631	68.35
0.634	68.34
0.637	68.5
0.64	68.48
0.643	68.51
0.646	68.54
0.649	68.6
0.652	68.71
0.655	68.74
0.658	68.86
0.661	68.75
0.664	68.89
0.667	69.01
0.67	68.94
0.673	69.16
0.676	69.14
0.679	69.15
0.682	69.08
0.685	69.3
0.688	69.4
0.691	69.5
0.694	69.52
0.697	69.73
0.7	69.6
0.703	69.72
0.706	69.91
0.709	70.02
0.712	70.16
0.715	70.05
0.718	70.13
0.721	70.17
0.724	70.31
0.727	70.61
0.73	70.72
0.733	70.71
0.736	70.64
0.739	70.9
0.742	70.98
0.745	71.03
0.748	71.17
0.751	71.14
0.754	71.2
0.757	71.33
0.76	71.42
0.763	71.56
0.766	71.62
0.769	71.68
0.772	71.72
0.775	71.83
0.778	71.88
0.781	71.98
0.784	71.99
0.787	72.11
0.79	72.03
0.793	72.11
0.796	72.29
0.799	72.22
0.808	72.55
0.82	72.59
0.832	72.73
0.844	72.93
0.856	72.89
0.868	73.06
0.88	73
0.892	73.08
0.904	73.07
0.916	73.18
0.928	73.17
0.94	73.38
0.952	73.36
0.964	73.55
0.976	73.57
0.988	73.69
1	73.73
1.012	73.85
1.024	74.01
1.036	74.08
1.048	74.08
1.06	74.13
1.072	74.17
1.084	74.26
1.096	74.3
1.108	74.45
1.12	74.51
1.132	74.68
1.144	74.63
1.156	74.67
1.168	74.69
1.18	74.85
1.192	74.99
1.204	75
1.216	75.13
1.228	75.2
1.24	75.27
1.252	75.58
1.264	75.59
1.276	75.68
1.288	75.83
1.3	75.77
1.312	75.9
1.324	76.01
1.336	75.94
1.348	75.98
1.36	76.09
1.372	75.95
1.384	75.82
1.396	75.75
1.408	75.41
1.42	75.26
1.432	75.25
1.444	75.22
1.456	75.49
1.468	75.71
1.48	75.77
1.492	76.04
1.504	76.29
1.516	76.41
1.528	76.47
1.54	76.69
1.552	76.73
1.564	76.93
1.576	77
1.588	77.05
1.6	77.18
1.612	77.3
1.624	77.26
1.636	77.32
1.648	77.5
1.66	77.59
1.672	77.52
1.684	77.61
1.696	77.52
1.708	77.56
1.72	77.5
1.732	77.34
1.744	77.25
1.756	77.22
1.768	77.19
1.78	77.28
1.792	77.39
1.804	77.42
1.816	77.46
1.828	77.47
1.84	77.37
1.852	77.18
1.864	77.05
1.876	76.33
1.888	75.18
1.9	73.63
1.912	72.45
1.924	71.77
1.936	71.52
1.948	71.69
1.96	72.3
1.972	72.93
1.984	73.69
1.996	74.52
2.008	75.24
2.02	75.82
2.032	76.1
2.044	76.42
2.056	76.47
2.068	76.64
2.08	76.75
2.092	76.84
2.104	76.98
2.116	77.21
2.128	77.04
2.14	77.02
2.152	76.86
2.164	76.72
2.176	76.53
2.188	76.28
2.2	76.07
2.212	75.86
2.224	75.94
2.236	76.06
2.248	75.99
2.26	75.9
2.272	75.93
2.284	75.81
2.296	75.62
2.308	75.37
2.32	75.5
2.332	75.42
2.344	75.37
2.356	75.06
2.368	74.78
2.38	74.33
2.392	73.77
2.404	73.51
2.416	73.14
2.428	72.75
2.44	72.52
2.452	72.1
2.464	71.9
2.476	71.68
2.488	71.88
2.5	72.13
