Name: Anhydrite CaSO_4
Type: Mineral
Class: Sulfates
Particle Size: 125-500um
Sample No.: SO-1A
Owner: JPL
Wavelength Range: VNIR-SWIR
Origin: Canada, Nova Scotia
Measurement: Hemispherical reflectance
X Units: Wavelength (micrometers)
Y Units: Reflectance (percent)
wavelength	value
0.4	44.63
0.403	44.95
0.406	45.22
0.409	45.37
0.412	45.7
0.415	45.98
0.418	46.21
0.421	46.42
0.424	46.69
0.427	46.93
0.43	47.23
0.433	47.41
0.436	47.71
0.439	47.95
0.442	48.15
0.445	48.33
0.448	48.54
0.451	48.63
0.454	48.75
0.457	48.97
0.46	49.02
0.463	49.21
0.466	49.39
0.469	49.51
0.472	49.76
0.475	49.82
0.478	50.04
0.481	50.14
0.484	50.14
0.487	50.19
0.49	50.36
0.493	50.47
0.496	50.45
0.499	50.58
0.502	50.51
0.505	50.76
0.508	50.82
0.511	50.94
0.514	50.89
0.517	50.87
0.52	50.87
0.523	50.94
0.526	50.95
0.529	51.01
0.532	50.98
0.535	50.88
0.538	50.93
0.541	50.91
0.544	50.94
0.547	50.86
0.55	50.94
0.553	50.97
0.556	51.04
0.559	51.01
0.562	51.14
0.565	51.24
0.568	51.22
0.571	51.09
0.574	50.95
0.577	51.03
0.58	51.03
0.583	51.07
0.586	50.96
0.589	50.95
0.592	50.92
0.595	51.05
0.598	51.07
0.601	51.19
0.604	51.33
0.607	51.35
0.61	51.44
0.613	51.5
0.616	51.66
0.619	51.57
0.622	51.71
0.625	51.75
0.628	52.03
0.631	52.21
0.634	52.39
0.637	52.41
0.64	52.67
0.643	52.8
0.646	53.13
0.649	53.31
0.652	53.38
0.655	53.7
0.658	53.8
0.661	54.14
0.664	54.19
0.667	54.47
0.67	54.79
0.673	54.94
0.676	55.17
0.679	55.38
0.682	55.69
0.685	55.82
0.688	56.08
0.691	56.26
0.694	56.65
0.697	56.86
0.7	57.01
0.703	57.22
0.706	57.57
0.709	57.87
0.712	58.06
0.715	58.27
0.718	58.53
0.721	58.87
0.724	59.12
0.727	59.38
0.73	59.71
0.733	59.96
0.736	60.19
0.739	60.55
0.742	60.87
0.745	61.05
0.748	61.4
0.751	61.68
0.754	61.86
0.757	62.13
0.76	62.23
0.763	62.54
0.766	62.72
0.769	62.83
0.772	63.04
0.775	63.2
0.778	63.31
0.781	63.37
0.784	63.56
0.787	63.52
0.79	63.75
0.793	63.93
0.796	64.06
0.799	64.15
0.808	64.72
0.82	65.01
0.832	65.17
0.844	65.49
0.856	65.66
0.868	65.89
0.88	65.97
0.892	65.95
0.904	66.01
0.916	66.13
0.928	66.26
0.94	66.36
0.952	66.48
0.964	66.5
0.976	66.48
0.988	66.55
1	66.58
1.012	66.67
1.024	66.89
1.036	66.98
1.048	67.08
1.06	67.28
1.072	67.31
1.084	67.44
1.096	67.56
1.108	67.64
1.12	67.76
1.132	67.84
1.144	67.89
1.156	67.81
1.168	67.7
1.18	67.69
1.192	67.88
1.204	68.03
1.216	68.07
1.228	68.32
1.24	68.47
1.252	68.66
1.264	68.81
1.276	69.01
1.288	69.12
1.3	69.26
1.312	69.22
1.324	69.06
1.336	68.85
1.348	68.68
1.36	68.57
1.372	68.43
1.384	68
1.396	66.94
1.408	65.44
1.42	63.67
1.432	62.14
1.444	60.74
1.456	62.11
1.468	62.82
1.48	63.27
1.492	63.78
1.504	65.03
1.516	65.65
1.528	65.77
1.54	66.2
1.552	67.22
1.564	67.84
1.576	68.33
1.588	68.67
1.6	69.09
1.612	69.43
1.624	69.63
1.636	69.88
1.648	70.07
1.66	70.23
1.672	70.28
1.684	70.22
1.696	70.01
1.708	69.56
1.72	68.54
1.732	67.7
1.744	67.09
1.756	67.2
1.768	67.41
1.78	67.68
1.792	68.2
1.804	68.53
1.816	68.57
1.828	68.61
1.84	68.29
1.852	67.68
1.864	66.07
1.876	63.24
1.888	59.27
1.9	54.56
1.912	49.92
1.924	46.41
1.936	44.59
1.948	45.25
1.96	46.85
1.972	48.4
1.984	50.73
1.996	54.28
2.008	57.28
2.02	59.23
2.032	60.52
2.044	61.36
2.056	61.95
2.068	62.29
2.08	62.48
2.092	62.39
2.104	62.28
2.116	62.15
2.128	61.77
2.14	61.38
2.152	60.92
2.164	60.45
2.176	60.09
2.188	59.76
2.2	59.43
2.212	59.29
2.224	59.92
2.236	60.37
2.248	60.53
2.26	60.44
2.272	60.63
2.284	60.61
2.296	60.61
2.308	60.26
2.32	59.74
2.332	58.95
2.344	57.92
2.356	56.74
2.368	55.28
2.38	53.54
2.392	51.66
2.404	49.96
2.416	48.62
2.428	47.5
2.44	46.72
2.452	46.17
2.464	45.65
2.476	45.32
2.488	45.35
2.5	45.59
