Name: Apatite Ca_5(PO_4)_3F
Type: Mineral
Class: Phosphates
Particle Size: 0-45um
Sample No.: P-1A
Owner: JPL
Origin: Canada, Ontario, Lanark County, Perth.
Measurement: Hemispherical reflectance
X Units: Wavelength (micrometers)
Y Units: Reflectance (percent)
wavelength	value
2.5	77.6492
2.494	77.7887
2.488	77.8782
2.482	78.1087
2.476	78.3257
2.47	78.4734
2.464	78.8341
2.458	78.9846
2.452	79.2914
2.446	79.6228
2.44	79.7192
2.434	79.7827
2.428	80.128
2.422	80.1889
2.416	80.4411
2.41	80.5934
2.404	80.6093
2.398	80.596
2.392	80.589
2.386	80.6626
2.38	80.8986
2.374	81.1897
2.368	81.3167
2.362	81.4222
2.356	81.4318
2.35	81.2906
2.344	81.1749
2.338	81.0123
2.332	80.8219
2.326	80.6157
2.32	80.1736
2.314	79.9083
2.308	80.0579
2.302	80.4336
2.296	80.7482
2.29	80.9921
2.284	81.2779
2.278	81.7463
2.272	82.0916
2.266	82.3885
2.26	82.5022
2.254	82.5553
2.248	82.6527
2.242	82.7354
2.236	82.8014
2.23	82.8236
2.224	82.971
2.218	83.0519
2.212	83.1118
2.206	83.2239
2.2	83.4685
2.194	83.4201
2.188	83.5067
2.182	83.4863
2.176	83.5232
2.17	83.6661
2.164	83.7333
2.158	83.8532
2.152	83.9525
2.146	84.1401
2.14	84.2108
2.134	84.1183
2.128	84.0405
2.122	83.807
2.116	83.5653
2.11	83.3132
2.104	83.0369
2.098	82.8309
2.092	82.8882
2.086	83.0028
2.08	83.0491
2.074	83.0409
2.068	83.127
2.062	83.1026
2.056	83.132
2.05	83.2149
2.044	83.1069
2.038	83.2021
2.032	83.1088
2.026	83.0033
2.02	82.8056
2.014	82.6418
2.008	82.309
2.002	81.9049
1.996	81.7785
1.99	82.0391
1.984	82.0405
1.978	82.0671
1.972	81.9884
1.966	82.0567
1.96	81.9493
1.954	81.9415
1.948	81.8759
1.942	81.8718
1.936	81.8637
1.93	81.8935
1.924	81.8416
1.918	81.5862
1.912	81.5729
1.906	81.6472
1.9	82.1479
1.894	82.8548
1.888	83.4797
1.882	83.8167
1.876	84.0389
1.87	84.2068
1.864	84.3795
1.858	84.4514
1.852	84.512
1.846	84.5747
1.84	84.5819
1.834	84.6226
1.828	84.641
1.822	84.673
1.816	84.6476
1.81	84.722
1.804	84.7447
1.798	84.8071
1.792	84.7478
1.786	84.7161
1.78	84.6881
1.774	84.7208
1.768	84.729
1.762	84.738
1.756	84.724
1.75	84.7423
1.744	84.757
1.738	84.8155
1.732	84.8219
1.726	84.8847
1.72	84.8563
1.714	84.8527
1.708	84.9797
1.702	84.834
1.696	84.9033
1.69	84.8291
1.684	84.8234
1.678	84.833
1.672	84.8218
1.666	84.8237
1.66	84.7749
1.654	84.8215
1.648	84.7983
1.642	84.9308
1.636	84.7667
1.63	84.8411
1.624	84.8109
1.618	84.742
1.612	84.7928
1.606	84.8124
1.6	84.6906
1.594	84.7167
1.588	84.7513
1.582	84.7665
1.576	84.7301
1.57	84.632
1.564	84.6727
1.558	84.6219
1.552	84.6079
1.546	84.5192
1.54	84.5107
1.534	84.5572
1.528	84.4929
1.522	84.4953
1.516	84.4206
1.51	84.402
1.504	84.4203
1.498	84.3106
1.492	84.387
1.486	84.3674
1.48	84.2856
1.474	84.2524
1.468	84.2622
1.462	84.1616
1.456	84.072
1.45	84.0451
1.444	84.006
1.438	83.8977
1.432	83.8407
1.426	83.8939
1.42	83.8872
1.414	83.8323
1.408	83.856
1.402	83.9709
1.396	83.7768
1.39	83.2753
1.384	84.3417
1.378	84.3898
1.372	84.4051
1.366	84.3416
1.36	84.4195
1.354	84.288
1.348	84.3578
1.342	84.3641
1.336	84.394
1.33	84.3556
1.324	84.2332
1.318	84.2725
1.312	84.1948
1.306	84.1942
1.3	84.1686
1.294	84.1528
1.288	84.1528
1.282	84.0876
1.276	84.1271
1.27	84.0065
1.264	83.9503
1.258	84.0246
1.252	83.9675
1.246	83.9369
1.24	83.852
1.234	83.8176
1.228	83.8578
1.222	83.7617
1.216	83.7528
1.21	83.7388
1.204	83.703
1.198	83.6512
1.192	83.5455
1.186	83.6403
1.18	83.563
1.174	83.5029
1.168	83.5041
1.162	83.4616
1.156	83.481
1.15	83.4335
1.144	83.3953
1.138	83.3726
1.132	83.3381
1.126	83.2221
1.12	83.1755
1.114	83.2551
1.108	83.1933
1.102	83.1482
1.096	83.1292
1.09	83.0927
1.084	83.1339
1.078	82.9991
1.072	82.9761
1.066	82.9188
1.06	82.9344
1.054	82.9602
1.048	82.7661
1.042	82.7846
1.036	82.712
1.03	82.7
1.024	82.6644
1.018	82.6178
1.012	82.5799
1.006	82.5041
1	82.4793
0.994	82.3834
0.988	82.284
0.982	82.209
0.976	82.1352
0.97	82.1402
0.964	82.0612
0.958	81.9785
0.952	81.9356
0.946	81.8109
0.94	81.7389
0.934	81.6653
0.928	81.5252
0.922	81.4674
0.916	81.3512
0.91	81.3028
0.904	81.1962
0.898	81.1256
0.892	81.0307
0.886	80.905
0.88	80.8402
0.874	80.7824
0.868	80.7218
0.862	80.6592
0.856	80.9005
0.85	80.7952
0.844	80.7274
0.838	80.6188
0.832	80.4901
0.826	80.4546
0.82	80.3071
0.814	80.1275
0.808	79.8938
0.802	79.744
0.796	79.7839
0.79	79.8056
0.784	79.6785
0.778	79.6027
0.772	79.4811
0.766	79.3553
0.76	79.1762
0.754	79.0003
0.748	78.7505
0.742	78.7317
0.736	78.7989
0.73	78.8368
0.724	78.8079
0.718	78.7331
0.712	78.6889
0.706	78.6145
0.7	78.6044
0.694	78.5393
0.688	78.493
0.682	78.4753
0.676	78.484
0.67	78.4849
0.664	78.4789
0.658	78.4746
0.652	78.4632
0.646	78.4624
0.64	78.478
0.634	78.4769
0.628	78.4903
0.622	78.5095
0.616	78.5154
0.61	78.5039
0.604	78.4845
0.598	78.4721
0.592	78.3999
0.586	78.2341
0.58	78.1931
0.574	78.2148
0.568	78.4333
0.562	78.3567
0.556	78.2504
0.55	78.1378
0.544	78.0065
0.538	77.8627
0.532	77.6663
0.526	77.4316
0.52	77.2947
0.514	77.0489
0.508	76.7856
0.502	76.5049
0.496	76.1658
0.49	75.8382
0.484	75.4276
0.478	75.0546
0.472	74.7066
0.466	74.3856
0.46	73.995
0.454	73.5923
0.448	73.0072
0.442	72.3209
0.436	71.4807
0.43	70.4905
0.424	69.4372
0.418	68.297
0.412	67.0713
0.406	65.7486
0.4	64.266
