Name: Alunite KAl_3(SO_4)_2(OH)_6
Type: Mineral
Class: Sulfates
Particle Size: 0-45um
Sample No.: SO-4A
Owner: JPL
Origin: USA, Utah.
Measurement: Hemispherical reflectance
X Units: Wavelength (micrometers)
Y Units: Reflectance (percent)
wavelength	value
2.5	40.6074
2.494	43.3141
2.488	45.5578
2.482	46.7091
2.476	46.4258
2.47	45.6629
2.464	45.5126
2.458	46.2636
2.452	47.2446
2.446	47.5327
2.44	46.9142
2.434	46.2867
2.428	46.195
2.422	47.3406
2.416	48.927
2.41	50.5385
2.404	51.4293
2.398	52.053
2.392	53.1043
2.386	55.1133
2.38	57.8859
2.374	60.8028
2.368	63.1234
2.362	64.5819
2.356	65.3056
2.35	65.5159
2.344	65.068
2.338	63.8943
2.332	62.1824
2.326	60.2795
2.32	59.2345
2.314	59.9926
2.308	62.398
2.302	65.3178
2.296	67.5399
2.29	68.7434
2.284	69.2988
2.278	69.7044
2.272	69.9279
2.266	70.0338
2.26	70.1624
2.254	70.1216
2.248	70.1759
2.242	69.9344
2.236	69.2814
2.23	68.106
2.224	65.59
2.218	61.0573
2.212	56.616
2.206	55.3459
2.2	56.5863
2.194	55.7933
2.188	52.8741
2.182	50.8071
2.176	50.1415
2.17	50.0159
2.164	49.7705
2.158	50.0447
2.152	51.0525
2.146	52.5786
2.14	53.8803
2.134	55.1503
2.128	56.5582
2.122	58.4788
2.116	60.8159
2.11	62.7082
2.104	64.1825
2.098	65.2548
2.092	65.9943
2.086	66.5719
2.08	66.7806
2.074	66.876
2.068	66.8527
2.062	66.9404
2.056	67.177
2.05	67.5765
2.044	68.0303
2.038	68.3571
2.032	68.7184
2.026	68.9549
2.02	68.9601
2.014	68.8145
2.008	68.9756
2.002	69.4886
1.996	70.1443
1.99	70.6765
1.984	71.1303
1.978	71.2052
1.972	71.136
1.966	70.9959
1.96	71.0272
1.954	71.2669
1.948	71.5434
1.942	71.8966
1.936	72.1195
1.93	72.3706
1.924	72.7463
1.918	73.3609
1.912	73.9563
1.906	74.8451
1.9	75.725
1.894	76.5599
1.888	77.2293
1.882	77.8113
1.876	78.329
1.87	78.8165
1.864	79.2228
1.858	79.4222
1.852	79.6454
1.846	79.7557
1.84	79.8714
1.834	80.0655
1.828	80.1795
1.822	80.2125
1.816	80.2482
1.81	80.226
1.804	80.0986
1.798	79.7258
1.792	78.7008
1.786	76.8508
1.78	75.2359
1.774	74.321
1.768	73.3305
1.762	73.6972
1.756	74.2786
1.75	75.062
1.744	76.2378
1.738	77.4549
1.732	78.4351
1.726	79.4035
1.72	80.1103
1.714	80.5672
1.708	80.8764
1.702	81.1138
1.696	81.2509
1.69	81.4112
1.684	81.6798
1.678	81.8095
1.672	82.0204
1.666	82.1673
1.66	82.343
1.654	82.5134
1.648	82.5141
1.642	82.6361
1.636	82.6129
1.63	82.8377
1.624	82.7891
1.618	82.8711
1.612	82.8421
1.606	83.017
1.6	82.9598
1.594	82.9881
1.588	82.9808
1.582	83.0979
1.576	83.1543
1.57	83.0953
1.564	83.125
1.558	83.2702
1.552	83.1946
1.546	83.1731
1.54	83.0619
1.534	82.87
1.528	82.8839
1.522	82.7683
1.516	82.3227
1.51	81.714
1.504	80.378
1.498	79.5995
1.492	78.8706
1.486	75.4312
1.48	65.6188
1.474	69.9838
1.468	75.4187
1.462	76.1224
1.456	76.7578
1.45	78.3257
1.444	79.3781
1.438	78.6149
1.432	74.16
1.426	71.6827
1.42	80.2023
1.414	82.9177
1.408	83.9643
1.402	84.7999
1.396	85.3079
1.39	85.6975
1.384	86.0502
1.378	86.05
1.372	86.1494
1.366	86.2207
1.36	85.903
1.354	85.8886
1.348	85.8841
1.342	85.9103
1.336	85.8953
1.33	86.4929
1.324	86.491
1.318	86.6317
1.312	86.8193
1.306	86.8943
1.3	86.853
1.294	86.8202
1.288	86.7079
1.282	86.2474
1.276	85.7629
1.27	85.4002
1.264	85.465
1.258	86.0606
1.252	86.3529
1.246	86.4429
1.24	86.5014
1.234	86.5781
1.228	86.7023
1.222	86.8421
1.216	86.9768
1.21	86.9294
1.204	87.0399
1.198	87.0764
1.192	87.1319
1.186	87.0534
1.18	87.0898
1.174	87.0383
1.168	86.9901
1.162	87.0283
1.156	87.0649
1.15	87.008
1.144	86.9662
1.138	86.8777
1.132	86.8854
1.126	86.8737
1.12	86.833
1.114	86.7398
1.108	86.6538
1.102	86.5434
1.096	86.7495
1.09	86.5792
1.084	86.4774
1.078	86.3539
1.072	86.4381
1.066	86.467
1.06	86.2136
1.054	86.27
1.048	86.1285
1.042	86.148
1.036	86.0553
1.03	85.9485
1.024	85.85
1.018	85.6465
1.012	85.4082
1.006	85.4246
1	85.3214
0.994	85.2433
0.988	85.2815
0.982	85.3621
0.976	85.3689
0.97	85.3602
0.964	85.3972
0.958	85.4044
0.952	85.3061
0.946	85.2833
0.94	85.2453
0.934	85.1643
0.928	85.1433
0.922	85.1142
0.916	85.0241
0.91	85.0257
0.904	84.9844
0.898	84.9891
0.892	84.9594
0.886	84.958
0.88	85.0947
0.874	85.0508
0.868	85.0477
0.862	85.1548
0.856	85.1633
0.85	85.2371
0.844	85.263
0.838	85.3572
0.832	85.3792
0.826	85.4539
0.82	85.5146
0.814	85.5556
0.808	85.633
0.802	85.7066
0.796	85.6435
0.79	85.6783
0.784	85.7095
0.778	85.7146
0.772	85.7215
0.766	85.7378
0.76	85.7502
0.754	85.7154
0.748	85.7034
0.742	85.6064
0.736	85.5436
0.73	85.4653
0.724	85.3412
0.718	85.2238
0.712	85.0929
0.706	84.9534
0.7	84.7833
0.694	84.6147
0.688	84.4774
0.682	84.3174
0.676	84.1506
0.67	84.0194
0.664	83.8762
0.658	83.7264
0.652	83.599
0.646	83.456
0.64	83.3319
0.634	83.1743
0.628	83.0294
0.622	82.8809
0.616	82.691
0.61	82.4871
0.604	82.2496
0.598	82.0087
0.592	81.6994
0.586	81.303
0.58	80.8537
0.574	80.3244
0.568	79.7642
0.562	79.1195
0.556	78.4616
0.55	77.7215
0.544	76.9468
0.538	76.1848
0.532	75.3908
0.526	74.6154
0.52	73.8603
0.514	73.1649
0.508	72.5087
0.502	71.904
0.496	71.3094
0.49	70.7843
0.484	70.3385
0.478	69.9831
0.472	69.6965
0.466	69.4324
0.46	69.194
0.454	68.9152
0.448	68.543
0.442	67.9701
0.436	67.3223
0.43	66.5479
0.424	65.9598
0.418	65.4107
0.412	64.8892
0.406	64.349
0.4	63.7752
