Name: Molybdenite MoS_2
Type: Mineral
Class: Sulfides
Particle Size: 125-500um
Sample No.: S-11A
Owner: JPL
Wavelength Range: VNIR-SWIR
Origin: Norway, Arendal, Froland
Measurement: Hemispherical reflectance
X Units: Wavelength (micrometers)
Y Units: Reflectance (percent)
wavelength	value
0.4	25.13
0.403	25.01
0.406	25.11
0.409	24.87
0.412	24.85
0.415	24.84
0.418	24.88
0.421	24.88
0.424	24.76
0.427	24.8
0.43	24.91
0.433	24.94
0.436	25.21
0.439	25.24
0.442	25.41
0.445	25.54
0.448	25.68
0.451	25.68
0.454	25.65
0.457	25.6
0.46	25.57
0.463	25.48
0.466	25.33
0.469	25.22
0.472	25.08
0.475	24.78
0.478	24.75
0.481	24.63
0.484	24.5
0.487	24.26
0.49	23.99
0.493	23.8
0.496	23.63
0.499	23.46
0.502	23.11
0.505	22.9
0.508	22.82
0.511	22.51
0.514	22.43
0.517	22.21
0.52	22
0.523	21.96
0.526	21.78
0.529	21.56
0.532	21.5
0.535	21.24
0.538	21.35
0.541	21.2
0.544	20.98
0.547	20.92
0.55	20.78
0.553	20.84
0.556	20.77
0.559	20.71
0.562	20.63
0.565	20.53
0.568	20.34
0.571	20.45
0.574	20.3
0.577	20.26
0.58	20.16
0.583	19.99
0.586	20.05
0.589	20.05
0.592	20.19
0.595	20.25
0.598	20.44
0.601	20.75
0.604	21.03
0.607	21.25
0.61	21.38
0.613	21.43
0.616	21.55
0.619	21.55
0.622	21.53
0.625	21.48
0.628	21.33
0.631	21.25
0.634	21.16
0.637	20.94
0.64	20.82
0.643	20.72
0.646	20.58
0.649	20.57
0.652	20.51
0.655	20.57
0.658	20.84
0.661	21.01
0.664	21.48
0.667	21.72
0.67	22.23
0.673	22.68
0.676	22.92
0.679	22.91
0.682	22.78
0.685	22.66
0.688	22.62
0.691	22.54
0.694	22.68
0.697	22.6
0.7	22.56
0.703	22.79
0.706	22.81
0.709	22.89
0.712	23.02
0.715	23.11
0.718	23.21
0.721	23.27
0.724	23.28
0.727	23.36
0.73	23.37
0.733	23.5
0.736	23.54
0.739	23.59
0.742	23.67
0.745	23.7
0.748	23.79
0.751	23.87
0.754	23.95
0.757	23.97
0.76	24.05
0.763	24.14
0.766	24.16
0.769	24.26
0.772	24.28
0.775	24.41
0.778	24.49
0.781	24.55
0.784	24.62
0.787	24.69
0.79	24.84
0.793	24.75
0.796	25.07
0.799	24.99
0.808	25.56
0.82	25.89
0.832	26.4
0.844	26.81
0.856	27.4
0.868	28.06
0.88	28.83
0.892	29.59
0.904	30.39
0.916	31.29
0.928	32.34
0.94	33.52
0.952	34.58
0.964	35.46
0.976	36.2
0.988	36.86
1	37.26
1.012	37.77
1.024	37.9
1.036	38.09
1.048	38.21
1.06	38.44
1.072	38.59
1.084	38.73
1.096	38.94
1.108	39.09
1.12	39.26
1.132	39.42
1.144	39.59
1.156	39.72
1.168	39.81
1.18	39.94
1.192	40.13
1.204	40.34
1.216	40.4
1.228	40.57
1.24	40.7
1.252	40.82
1.264	40.92
1.276	41.17
1.288	41.32
1.3	41.4
1.312	41.61
1.324	41.61
1.336	41.69
1.348	41.81
1.36	41.94
1.372	42.08
1.384	42.08
1.396	42.09
1.408	42.13
1.42	42.3
1.432	42.43
1.444	42.57
1.456	42.77
1.468	42.9
1.48	43.01
1.492	43.09
1.504	43.23
1.516	43.36
1.528	43.44
1.54	43.61
1.552	43.77
1.564	43.81
1.576	43.95
1.588	44.11
1.6	44.29
1.612	44.36
1.624	44.49
1.636	44.57
1.648	44.79
1.66	44.95
1.672	45.14
1.684	45.22
1.696	45.33
1.708	45.46
1.72	45.61
1.732	45.75
1.744	45.93
1.756	45.99
1.768	46.2
1.78	46.38
1.792	46.41
1.804	46.57
1.816	46.67
1.828	46.79
1.84	46.95
1.852	46.99
1.864	47.07
1.876	47.18
1.888	47.21
1.9	47.26
1.912	47.17
1.924	47.14
1.936	47.31
1.948	47.44
1.96	47.55
1.972	47.7
1.984	47.83
1.996	48.12
2.008	48.22
2.02	48.42
2.032	48.56
2.044	48.56
2.056	48.63
2.068	48.72
2.08	48.78
2.092	48.96
2.104	49.09
2.116	49.2
2.128	49.19
2.14	49.17
2.152	49.16
2.164	49.18
2.176	49.09
2.188	48.95
2.2	48.98
2.212	49.11
2.224	49.26
2.236	49.27
2.248	49.26
2.26	49.3
2.272	49.45
2.284	49.47
2.296	49.43
2.308	49.31
2.32	49.4
2.332	49.56
2.344	49.59
2.356	49.55
2.368	49.57
2.38	49.66
2.392	49.67
2.404	49.65
2.416	49.57
2.428	49.59
2.44	49.59
2.452	49.65
2.464	49.56
2.476	49.52
2.488	49.84
2.5	50.12
