Name: Natrojarosite NaFe_3^3+(SO_4)_2(OH)_6
Type: Mineral
Class: Sulfates
Particle Size: 0-45um
Sample No.: SO-7C
Owner: JPL
Origin: USA, Utah, Tooele County, Gold Hill.
Measurement: Hemispherical reflectance
X Units: Wavelength (micrometers)
Y Units: Reflectance (percent)
wavelength	value
2.5	61.9359
2.494	63.331
2.488	64.4147
2.482	64.7136
2.476	64.854
2.47	64.5404
2.464	64.3075
2.458	64.5523
2.452	65.2236
2.446	66.3118
2.44	67.2462
2.434	67.7769
2.428	68.1411
2.422	68.0766
2.416	68.1694
2.41	68.4307
2.404	68.9523
2.398	70.1018
2.392	71.5182
2.386	73.0407
2.38	74.5451
2.374	75.7325
2.368	76.8937
2.362	77.6927
2.356	78.5086
2.35	78.9548
2.344	79.2644
2.338	79.3005
2.332	79.2537
2.326	78.757
2.32	77.9488
2.314	76.8271
2.308	75.4408
2.302	74.2847
2.296	73.3717
2.29	72.1119
2.284	70.2809
2.278	68.1228
2.272	66.5127
2.266	65.9243
2.26	66.6311
2.254	68.4593
2.248	70.4956
2.242	71.8113
2.236	72.4651
2.23	72.8185
2.224	73.297
2.218	73.9292
2.212	74.8049
2.206	75.5091
2.2	76.4199
2.194	77.064
2.188	77.689
2.182	78.2545
2.176	78.8205
2.17	79.3226
2.164	79.6336
2.158	79.8984
2.152	80.3147
2.146	80.6403
2.14	80.8618
2.134	81.0543
2.128	81.1248
2.122	81.0813
2.116	81.1494
2.11	81.0347
2.104	81.0534
2.098	81.0832
2.092	81.3085
2.086	81.5492
2.08	81.7311
2.074	82.0202
2.068	82.2445
2.062	82.5031
2.056	82.7688
2.05	83.0763
2.044	83.3794
2.038	83.6541
2.032	84.0394
2.026	84.3885
2.02	84.5087
2.014	84.6957
2.008	84.6944
2.002	84.8463
1.996	84.8971
1.99	85.1259
1.984	85.1919
1.978	85.3371
1.972	85.347
1.966	85.4299
1.96	85.5377
1.954	85.7242
1.948	85.8784
1.942	85.8653
1.936	86.0624
1.93	86.2839
1.924	86.544
1.918	86.9977
1.912	87.2607
1.906	87.5399
1.9	87.7936
1.894	87.9048
1.888	87.795
1.882	87.4609
1.876	86.5644
1.87	84.8651
1.864	83.0117
1.858	82.2211
1.852	81.6475
1.846	81.0021
1.84	82.3029
1.834	84.5825
1.828	86.3877
1.822	87.3266
1.816	87.8632
1.81	88.3675
1.804	88.7931
1.798	89.1537
1.792	89.2628
1.786	89.4031
1.78	89.5175
1.774	89.5943
1.768	89.6974
1.762	89.8477
1.756	89.9106
1.75	90.0602
1.744	90.1483
1.738	90.3374
1.732	90.4084
1.726	90.4279
1.72	90.4599
1.714	90.3854
1.708	90.3208
1.702	90.4339
1.696	90.2933
1.69	90.2574
1.684	90.1751
1.678	90.0803
1.672	90.0138
1.666	89.9258
1.66	89.7679
1.654	89.6956
1.648	89.6228
1.642	89.6749
1.636	89.4364
1.63	89.4232
1.624	89.2735
1.618	89.101
1.612	89.0002
1.606	88.8847
1.6	88.6367
1.594	88.4675
1.588	88.2559
1.582	87.9761
1.576	87.6998
1.57	87.2597
1.564	87.071
1.558	86.6973
1.552	86.4366
1.546	86.3033
1.54	86.2684
1.534	86.2149
1.528	86.2541
1.522	86.3318
1.516	86.4449
1.51	86.5261
1.504	86.444
1.498	86.3363
1.492	85.7595
1.486	83.7896
1.48	81.4316
1.474	81.6588
1.468	83.3565
1.462	85.1382
1.456	86.5285
1.45	87.1758
1.444	87.5965
1.438	87.7326
1.432	87.7675
1.426	87.7146
1.42	87.6657
1.414	87.5028
1.408	87.3991
1.402	87.1804
1.396	86.9518
1.39	86.6483
1.384	86.3599
1.378	86.0343
1.372	85.7809
1.366	85.4262
1.36	85.1773
1.354	84.8086
1.348	84.4522
1.342	84.1669
1.336	83.7567
1.33	83.3441
1.324	82.9797
1.318	82.5575
1.312	82.2041
1.306	81.7442
1.3	81.3359
1.294	80.9864
1.288	80.4523
1.282	80.0868
1.276	79.6964
1.27	79.3227
1.264	78.8194
1.258	78.3437
1.252	77.9252
1.246	77.5746
1.24	77.0609
1.234	76.6326
1.228	76.1015
1.222	75.7171
1.216	75.2844
1.21	74.8278
1.204	74.4104
1.198	73.9699
1.192	73.5021
1.186	73.0669
1.18	72.6183
1.174	72.2586
1.168	71.7735
1.162	71.3428
1.156	70.8699
1.15	70.3997
1.144	69.929
1.138	69.5522
1.132	69.0473
1.126	68.6118
1.12	68.0346
1.114	67.6141
1.108	67.0146
1.102	66.5013
1.096	65.9331
1.09	65.39
1.084	64.785
1.078	64.1869
1.072	63.5504
1.066	62.8784
1.06	62.1037
1.054	61.4638
1.048	60.773
1.042	59.9662
1.036	59.2535
1.03	58.4907
1.024	57.7477
1.018	56.9976
1.012	56.3474
1.006	55.5821
1	54.9806
0.994	54.4796
0.988	53.8381
0.982	53.3061
0.976	52.8223
0.97	52.3473
0.964	51.9004
0.958	51.5876
0.952	51.274
0.946	50.9195
0.94	50.7851
0.934	50.6409
0.928	50.4824
0.922	50.4693
0.916	50.359
0.91	50.4015
0.904	50.533
0.898	50.6722
0.892	50.8562
0.886	51.1324
0.88	51.3724
0.874	51.6831
0.868	52.1506
0.862	52.6541
0.856	53.6769
0.85	54.2967
0.844	54.9743
0.838	55.6446
0.832	56.437
0.826	57.2908
0.82	58.2134
0.814	59.2048
0.808	60.1843
0.802	61.2494
0.796	62.2799
0.79	63.3156
0.784	64.4844
0.778	65.4768
0.772	66.4267
0.766	67.3458
0.76	68.1508
0.754	68.8348
0.748	69.409
0.742	69.7528
0.736	69.9326
0.73	69.9728
0.724	69.8123
0.718	69.4391
0.712	68.9796
0.706	68.3691
0.7	67.6425
0.694	66.8354
0.688	66.0232
0.682	65.1083
0.676	64.2473
0.67	63.3636
0.664	62.5507
0.658	61.7877
0.652	61.0692
0.646	60.4284
0.64	59.8232
0.634	59.271
0.628	58.6978
0.622	58.1347
0.616	57.5345
0.61	56.9251
0.604	56.3122
0.598	55.632
0.592	54.8807
0.586	53.931
0.58	52.7257
0.574	51.2065
0.568	49.3077
0.562	47.0213
0.556	44.3445
0.55	41.4167
0.544	38.3678
0.538	35.2959
0.532	32.4139
0.526	29.7855
0.52	27.4039
0.514	25.33
0.508	23.519
0.502	21.8949
0.496	20.4751
0.49	19.1908
0.484	18.0467
0.478	17.0526
0.472	16.0741
0.466	15.0956
0.46	13.9983
0.454	12.5601
0.448	10.7643
0.442	8.94024
0.436	7.62441
0.43	7.76605
0.424	8.52643
0.418	8.64501
0.412	8.12896
0.406	6.92835
0.4	5.39314
