Name: Antlerite Cu_3(SO_4)(OH)_4
Type: Mineral
Class: Sulfates
Particle Size: 125-500um
Sample No.: SO-11A
Owner: JPL
Wavelength Range: VNIR-SWIR
Origin: USA, Arizona, Greenlee County, Morenci
Measurement: Hemispherical reflectance
X Units: Wavelength (micrometers)
Y Units: Reflectance (percent)
wavelength	value
0.4	13.53
0.403	13.68
0.406	13.65
0.409	13.93
0.412	14.06
0.415	14.26
0.418	14.29
0.421	14.48
0.424	14.53
0.427	14.92
0.43	15.07
0.433	15.29
0.436	15.54
0.439	15.74
0.442	15.97
0.445	16.4
0.448	16.56
0.451	16.88
0.454	17.17
0.457	17.46
0.46	17.75
0.463	18.25
0.466	18.65
0.469	18.85
0.472	19.35
0.475	19.78
0.478	20.28
0.481	20.76
0.484	21.31
0.487	21.69
0.49	22.24
0.493	22.77
0.496	23.25
0.499	23.7
0.502	24.14
0.505	24.45
0.508	24.81
0.511	25.12
0.514	25.31
0.517	25.55
0.52	25.56
0.523	25.54
0.526	25.4
0.529	25.27
0.532	25.07
0.535	24.72
0.538	24.24
0.541	23.81
0.544	23.17
0.547	22.67
0.55	22.03
0.553	21.43
0.556	20.67
0.559	20.12
0.562	19.32
0.565	18.57
0.568	17.92
0.571	17.2
0.574	16.62
0.577	15.92
0.58	15.45
0.583	14.83
0.586	14.32
0.589	13.91
0.592	13.45
0.595	13.12
0.598	12.72
0.601	12.5
0.604	12.07
0.607	11.82
0.61	11.55
0.613	11.32
0.616	11
0.619	10.85
0.622	10.8
0.625	10.53
0.628	10.46
0.631	10.28
0.634	10.16
0.637	9.91
0.64	9.96
0.643	9.84
0.646	9.69
0.649	9.6
0.652	9.57
0.655	9.48
0.658	9.32
0.661	9.42
0.664	9.27
0.667	9.28
0.67	9.19
0.673	9.13
0.676	9.11
0.679	9.08
0.682	9.13
0.685	9.06
0.688	8.98
0.691	8.95
0.694	9.01
0.697	8.85
0.7	8.96
0.703	8.94
0.706	8.96
0.709	8.9
0.712	8.89
0.715	8.95
0.718	8.86
0.721	8.89
0.724	8.85
0.727	9.01
0.73	8.86
0.733	8.89
0.736	8.95
0.739	8.87
0.742	9.01
0.745	9.01
0.748	9.02
0.751	9
0.754	9.01
0.757	9.01
0.76	9.05
0.763	9.1
0.766	9.07
0.769	9.04
0.772	9.05
0.775	9.07
0.778	9.1
0.781	9.1
0.784	9.14
0.787	9.09
0.79	9.08
0.793	9.15
0.796	9.13
0.799	9.43
0.808	9.42
0.82	9.4
0.832	9.24
0.844	9.28
0.856	9.09
0.868	9.11
0.88	8.99
0.892	8.86
0.904	8.92
0.916	8.81
0.928	8.84
0.94	8.87
0.952	8.88
0.964	8.87
0.976	8.98
0.988	9.03
1	9.12
1.012	9.2
1.024	9.35
1.036	9.47
1.048	9.56
1.06	9.7
1.072	9.77
1.084	9.98
1.096	10.12
1.108	10.26
1.12	10.45
1.132	10.68
1.144	10.84
1.156	11.08
1.168	11.39
1.18	11.61
1.192	11.95
1.204	12.26
1.216	12.75
1.228	13.01
1.24	13.52
1.252	14.03
1.264	14.56
1.276	15.13
1.288	15.59
1.3	16.2
1.312	16.81
1.324	17.6
1.336	18.22
1.348	18.86
1.36	19.55
1.372	20.21
1.384	20.77
1.396	20.94
1.408	20.31
1.42	20.71
1.432	17.38
1.444	22.79
1.456	22.1
1.468	18.28
1.48	22.19
1.492	25.54
1.504	26.75
1.516	27.66
1.528	28.35
1.54	28.9
1.552	29.43
1.564	29.74
1.576	30.23
1.588	30.58
1.6	30.85
1.612	31.17
1.624	31.39
1.636	31.61
1.648	31.78
1.66	31.98
1.672	32.06
1.684	32.13
1.696	32.23
1.708	32.24
1.72	32.32
1.732	32.49
1.744	32.57
1.756	32.55
1.768	32.63
1.78	32.77
1.792	32.84
1.804	32.69
1.816	32.7
1.828	32.72
1.84	32.52
1.852	32.44
1.864	32.24
1.876	31.89
1.888	31.4
1.9	30.73
1.912	30.04
1.924	29.82
1.936	29.49
1.948	28.88
1.96	28.59
1.972	29.33
1.984	30.14
1.996	30.52
2.008	30.54
2.02	30.72
2.032	30.93
2.044	30.98
2.056	30.72
2.068	30.44
2.08	30.19
2.092	29.48
2.104	27.91
2.116	27.2
2.128	26.48
2.14	25.19
2.152	25.25
2.164	26.46
2.176	25.91
2.188	24.92
2.2	24.6
2.212	22.71
2.224	18.9
2.236	15.83
2.248	15.57
2.26	16.37
2.272	15.29
2.284	12.38
2.296	9.84
2.308	8.87
2.32	9.33
2.332	9.17
2.344	8.75
2.356	9.3
2.368	11.29
2.38	13.37
2.392	15.08
2.404	16.41
2.416	16.5
2.428	15.46
2.44	14.36
2.452	14.35
2.464	15.06
2.476	15.7
2.488	15.6
2.5	15.02
