Name: Talc Mg_3Si_4O_10(OH)_2
Type: Mineral
Class: Silicates
Subclass: Phyllosilicates
Particle Size: 125-500um
Sample No.: PS-14A
Owner: JPL
Wavelength Range: VNIR-SWIR
Origin: USA, Georgia, Cherokee County, Holly Springs
Measurement: Hemispherical reflectance
X Units: Wavelength (micrometers)
Y Units: Reflectance (percent)
wavelength	value
0.4	82.13
0.403	82.36
0.406	82.41
0.409	83.09
0.412	83.15
0.415	83.72
0.418	84.13
0.421	84.18
0.424	85.04
0.427	84.75
0.43	85.49
0.433	85.72
0.436	85.61
0.439	86.17
0.442	85.83
0.445	86.17
0.448	86.06
0.451	85.94
0.454	86.36
0.457	86.07
0.46	86.19
0.463	86.61
0.466	86.49
0.469	86.44
0.472	87.01
0.475	86.62
0.478	87.03
0.481	87.14
0.484	87.15
0.487	87.72
0.49	87.38
0.493	87.8
0.496	87.62
0.499	87.63
0.502	88.09
0.505	87.81
0.508	88.32
0.511	88.09
0.514	88.26
0.517	88.49
0.52	88.32
0.523	88.71
0.526	88.44
0.529	88.61
0.532	88.66
0.535	88.44
0.538	88.77
0.541	88.55
0.544	88.94
0.547	88.61
0.55	88.89
0.553	89
0.556	88.66
0.559	89.06
0.562	89.17
0.565	88.61
0.568	88.77
0.571	88.55
0.574	88.21
0.577	88.49
0.58	87.81
0.583	87.98
0.586	87.69
0.589	87.29
0.592	87.69
0.595	87
0.598	86.95
0.601	86.78
0.604	86.44
0.607	86.72
0.61	86.09
0.613	85.98
0.616	85.52
0.619	85.13
0.622	85.46
0.625	84.67
0.628	84.72
0.631	84.49
0.634	84.21
0.637	84.32
0.64	83.69
0.643	83.98
0.646	83.8
0.649	83.69
0.652	83.98
0.655	83.53
0.658	83.75
0.661	83.41
0.664	83.64
0.667	83.69
0.67	83.47
0.673	83.69
0.676	83.41
0.679	83.69
0.682	83.64
0.685	83.47
0.688	83.69
0.691	83.3
0.694	83.58
0.697	83.53
0.7	83.41
0.703	82.9
0.706	83.13
0.709	83.3
0.712	82.84
0.715	83.07
0.718	82.55
0.721	82.78
0.724	82.49
0.727	82.03
0.73	82.26
0.733	81.99
0.736	82.15
0.739	81.81
0.742	81.76
0.745	81.58
0.748	81.18
0.751	81.53
0.754	80.9
0.757	80.95
0.76	80.72
0.763	80.33
0.766	80.61
0.769	80.16
0.772	79.87
0.775	79.64
0.778	79.3
0.781	79.35
0.784	78.84
0.787	78.62
0.79	78.5
0.793	78.04
0.796	78.27
0.799	77.99
0.808	77.53
0.82	76.33
0.832	75.87
0.844	75.31
0.856	75.19
0.868	75.08
0.88	75.02
0.892	75.19
0.904	75.36
0.916	75.53
0.928	75.64
0.94	75.25
0.952	74.44
0.964	75.41
0.976	75.13
0.988	74.96
1	74.85
1.012	74.79
1.024	75.08
1.036	75.13
1.048	75.64
1.06	75.7
1.072	76.39
1.084	77.07
1.096	77.76
1.108	78.56
1.12	79.3
1.132	80.22
1.144	81.18
1.156	81.86
1.168	82.69
1.18	83.42
1.192	84.25
1.204	85.04
1.216	85.44
1.228	85.94
1.24	86.58
1.252	87.09
1.264	87.01
1.276	85.67
1.288	87.76
1.3	87.51
1.312	88.35
1.324	88.38
1.336	88.7
1.348	89.13
1.36	89.02
1.372	89.25
1.384	80.31
1.396	69.15
1.408	88.19
1.42	89.97
1.432	89.99
1.444	90.41
1.456	90.76
1.468	90.82
1.48	90.76
1.492	90.99
1.504	91.05
1.516	91.27
1.528	90.82
1.54	90.88
1.552	91.39
1.564	91.67
1.576	91.5
1.588	91.62
1.6	91.67
1.612	91.71
1.624	91.52
1.636	91.44
1.648	91.64
1.66	91.62
1.672	91.66
1.684	91.57
1.696	91.5
1.708	91.66
1.72	91.49
1.732	91.55
1.744	91.49
1.756	91.66
1.768	91.44
1.78	91.38
1.792	91.09
1.804	90.73
1.816	89.77
1.828	89.25
1.84	89.27
1.852	89.31
1.864	88.71
1.876	88.53
1.888	88.21
1.9	88.26
1.912	88.18
1.924	88.15
1.936	88.13
1.948	88
1.96	87.99
1.972	87.43
1.984	86.75
1.996	85.37
2.008	84.43
2.02	84.54
2.032	85.08
2.044	84.54
2.056	82.49
2.068	79.32
2.08	77.39
2.092	77.51
2.104	78.25
2.116	77.26
2.128	76.32
2.14	76.73
2.152	77.46
2.164	77.74
2.176	77.92
2.188	79.65
2.2	80.63
2.212	79.58
2.224	76.96
2.236	75.34
2.248	73.39
2.26	67.71
2.272	58.12
2.284	48.08
2.296	40.51
2.308	38.98
2.32	46.52
2.332	55.79
2.344	61.78
2.356	60.43
2.368	54.55
2.38	49.84
2.392	49.83
2.404	53.81
2.416	56.84
2.428	57.37
2.44	56.36
2.452	55.31
2.464	55.35
2.476	56.21
2.488	57.07
2.5	57.4
