Name: Almandine Garnet Fe_3Al_2(SiO_4)_3
Type: Mineral
Class: Silicates
Subclass: Nesosilicates
Particle Size: 0-45um
Sample No.: NS-4A
Owner: JPL
Wavelength Range: VNIR-SWIR
Origin: USA, Arizona, Graham County, Stanley Butte
Measurement: Hemispherical reflectance
X Units: Wavelength (micrometers)
Y Units: Reflectance (percent)
wavelength	value
0.4	30.88
0.403	31.16
0.406	31.48
0.409	31.68
0.412	31.82
0.415	32.13
0.418	32.31
0.421	32.55
0.424	32.57
0.427	32.63
0.43	33.07
0.433	33.1
0.436	33.33
0.439	33.65
0.442	33.8
0.445	34.03
0.448	34.09
0.451	34.16
0.454	34.43
0.457	34.4
0.46	34.35
0.463	34.67
0.466	34.51
0.469	34.81
0.472	34.97
0.475	34.92
0.478	34.98
0.481	35.1
0.484	35.21
0.487	35.25
0.49	35.21
0.493	35.29
0.496	35.24
0.499	35.21
0.502	35.38
0.505	35.41
0.508	35.56
0.511	35.77
0.514	35.93
0.517	36.3
0.52	36.23
0.523	36.29
0.526	36.47
0.529	36.6
0.532	36.8
0.535	36.83
0.538	36.95
0.541	37.21
0.544	37.13
0.547	37.21
0.55	37.45
0.553	37.56
0.556	37.65
0.559	37.49
0.562	37.64
0.565	37.82
0.568	37.88
0.571	37.87
0.574	37.86
0.577	37.7
0.58	37.8
0.583	38.05
0.586	37.98
0.589	38.09
0.592	38.34
0.595	38.44
0.598	38.55
0.601	38.51
0.604	38.48
0.607	38.71
0.61	38.78
0.613	38.55
0.616	38.68
0.619	38.75
0.622	38.81
0.625	38.86
0.628	38.86
0.631	38.92
0.634	39.08
0.637	38.9
0.64	39.05
0.643	39.19
0.646	39.21
0.649	39.29
0.652	39.16
0.655	39.23
0.658	39.31
0.661	39.16
0.664	39.26
0.667	39.3
0.67	39.24
0.673	39.27
0.676	39.23
0.679	39.31
0.682	39.27
0.685	39.2
0.688	39.28
0.691	39.48
0.694	39.41
0.697	39.46
0.7	39.33
0.703	39.44
0.706	39.3
0.709	39.43
0.712	39.42
0.715	39.42
0.718	39.54
0.721	39.59
0.724	39.65
0.727	39.54
0.73	39.51
0.733	39.67
0.736	39.61
0.739	39.68
0.742	39.77
0.745	39.81
0.748	39.81
0.751	39.81
0.754	39.82
0.757	39.78
0.76	39.8
0.763	39.69
0.766	39.93
0.769	39.92
0.772	39.99
0.775	39.94
0.778	39.91
0.781	40.47
0.784	40.14
0.787	40.06
0.79	40.14
0.793	40.27
0.796	40.29
0.799	40.22
0.808	40.55
0.82	40.53
0.832	40.41
0.844	40.45
0.856	40.47
0.868	40.49
0.88	40.46
0.892	40.52
0.904	40.52
0.916	40.36
0.928	40.41
0.94	40.43
0.952	40.52
0.964	40.46
0.976	40.31
0.988	40.28
1	40.2
1.012	40.18
1.024	40.08
1.036	39.93
1.048	39.7
1.06	39.49
1.072	39.36
1.084	39.14
1.096	38.96
1.108	38.76
1.12	38.56
1.132	38.15
1.144	37.78
1.156	37.47
1.168	37.17
1.18	36.88
1.192	36.56
1.204	36.33
1.216	36.16
1.228	35.98
1.24	35.83
1.252	35.68
1.264	35.52
1.276	35.49
1.288	35.47
1.3	35.57
1.312	35.71
1.324	35.81
1.336	35.92
1.348	36.09
1.36	36.24
1.372	36.48
1.384	36.69
1.396	36.9
1.408	37.06
1.42	37.28
1.432	37.57
1.444	37.53
1.456	37.63
1.468	37.72
1.48	37.76
1.492	37.85
1.504	37.83
1.516	37.85
1.528	37.84
1.54	37.8
1.552	37.63
1.564	37.61
1.576	37.65
1.588	37.63
1.6	37.56
1.612	37.51
1.624	37.4
1.636	37.43
1.648	37.42
1.66	37.37
1.672	37.39
1.684	37.34
1.696	37.45
1.708	37.56
1.72	37.57
1.732	37.58
1.744	37.51
1.756	37.57
1.768	37.64
1.78	37.72
1.792	37.82
1.804	37.78
1.816	37.85
1.828	37.88
1.84	37.92
1.852	37.97
1.864	38.17
1.876	38.1
1.888	38.1
1.9	38.07
1.912	38.11
1.924	38.03
1.936	38.07
1.948	38.01
1.96	38.17
1.972	38.24
1.984	38.23
1.996	38.33
2.008	38.3
2.02	38.33
2.032	38.31
2.044	38.26
2.056	38.21
2.068	38.25
2.08	38.28
2.092	38.25
2.104	38.25
2.116	38.27
2.128	38.22
2.14	38.09
2.152	37.95
2.164	37.88
2.176	37.87
2.188	37.78
2.2	37.8
2.212	37.73
2.224	37.73
2.236	37.72
2.248	37.69
2.26	37.68
2.272	37.69
2.284	37.69
2.296	37.7
2.308	37.65
2.32	37.75
2.332	37.76
2.344	37.9
2.356	37.85
2.368	37.85
2.38	37.87
2.392	37.96
2.404	38.03
2.416	38.06
2.428	38.1
2.44	38.08
2.452	38.2
2.464	38.29
2.476	38.21
2.488	38.39
2.5	38.55
