Name: Kernite Na_2B_4O_6(OH)_2.3H_2O
Type: Mineral
Class: Borates
Particle Size: 125-500um
Sample No.: B-2A
Owner: JPL
Origin: USA, California, Kern County, Boron.
Measurement: Hemispherical reflectance
X Units: Wavelength (micrometers)
Y Units: Reflectance (percent)
wavelength	value
2.5	22.2786
2.494	22.3361
2.488	22.3722
2.482	22.3895
2.476	22.4767
2.47	22.4058
2.464	22.577
2.458	22.6853
2.452	22.8625
2.446	22.7396
2.44	22.762
2.434	22.927
2.428	23.0244
2.422	23.3961
2.416	23.8489
2.41	24.3775
2.404	24.8863
2.398	25.446
2.392	26.2311
2.386	27.1889
2.38	28.3248
2.374	29.5639
2.368	30.6902
2.362	31.7005
2.356	32.4698
2.35	33.2234
2.344	33.9032
2.338	34.6876
2.332	35.4938
2.326	36.0603
2.32	36.5525
2.314	36.7624
2.308	36.7942
2.302	36.4948
2.296	36.0292
2.29	35.2805
2.284	34.6655
2.278	34.1176
2.272	33.7743
2.266	33.5315
2.26	33.2521
2.254	33.0503
2.248	32.749
2.242	32.3483
2.236	31.5137
2.23	30.5203
2.224	29.4711
2.218	28.3645
2.212	27.0675
2.206	25.4651
2.2	23.4355
2.194	21.4053
2.188	20.7131
2.182	22.3345
2.176	25.1502
2.17	27.8837
2.164	29.5249
2.158	30.3935
2.152	30.9266
2.146	31.3071
2.14	31.6029
2.134	31.8421
2.128	32.0103
2.122	31.9331
2.116	31.6902
2.11	31.4688
2.104	30.994
2.098	30.5892
2.092	30.2766
2.086	29.8016
2.08	29.2844
2.074	28.7597
2.068	28.0455
2.062	27.0863
2.056	25.7937
2.05	25.0028
2.044	25.0735
2.038	25.043
2.032	24.8582
2.026	24.7526
2.02	24.4244
2.014	23.8865
2.008	23.387
2.002	23.0062
1.996	22.7128
1.99	22.537
1.984	22.4134
1.978	22.4392
1.972	22.4699
1.966	22.892
1.96	23.6457
1.954	24.8311
1.948	26.2836
1.942	28.0319
1.936	29.775
1.93	31.6716
1.924	33.5212
1.918	35.357
1.912	37.1877
1.906	39.0647
1.9	41.1338
1.894	43.2292
1.888	45.1514
1.882	46.5848
1.876	47.7265
1.87	48.5764
1.864	49.1191
1.858	49.4433
1.852	49.6434
1.846	49.7215
1.84	49.7099
1.834	49.6296
1.828	49.3807
1.822	49.1104
1.816	48.8769
1.81	48.5983
1.804	48.2655
1.798	48.0166
1.792	47.8721
1.786	47.8674
1.78	48.0661
1.774	48.3818
1.768	48.7334
1.762	49.0928
1.756	49.4127
1.75	49.7177
1.744	49.8593
1.738	50.1962
1.732	50.4899
1.726	50.6811
1.72	50.9404
1.714	51.2114
1.708	51.4075
1.702	51.5556
1.696	51.6795
1.69	51.8174
1.684	51.9272
1.678	51.9277
1.672	51.9082
1.666	51.7667
1.66	51.7291
1.654	51.5348
1.648	51.2828
1.642	50.9657
1.636	50.5955
1.63	50.1901
1.624	49.7992
1.618	49.449
1.612	49.0815
1.606	48.6988
1.6	48.4347
1.594	48.1694
1.588	47.9643
1.582	47.6478
1.576	47.439
1.57	47.3703
1.564	47.28
1.558	47.2828
1.552	47.2211
1.546	47.3034
1.54	47.4081
1.534	47.4778
1.528	47.2528
1.522	46.8541
1.516	46.3088
1.51	45.9353
1.504	45.6104
1.498	45.4354
1.492	45.6105
1.486	45.9439
1.48	46.4736
1.474	47.4493
1.468	48.5218
1.462	48.9965
1.456	48.7704
1.45	45.7118
1.444	41.6337
1.438	42.5922
1.432	48.0566
1.426	54.716
1.42	60.7453
1.414	65.1083
1.408	67.155
1.402	70.22
1.396	71.9259
1.39	72.8715
1.384	73.5772
1.378	73.9751
1.372	74.2918
1.366	74.7633
1.36	75.0882
1.354	75.3718
1.348	75.6451
1.342	76.0111
1.336	76.1253
1.33	76.1063
1.324	75.9236
1.318	75.7861
1.312	76.0908
1.306	76.6455
1.3	77.0773
1.294	77.1278
1.288	77.2206
1.282	77.1868
1.276	76.8883
1.27	76.2853
1.264	75.6496
1.258	75.5565
1.252	76.1096
1.246	76.5084
1.24	76.9147
1.234	77.3155
1.228	77.5637
1.222	77.8249
1.216	78.0335
1.21	78.2209
1.204	78.4173
1.198	78.8223
1.192	79.4033
1.186	79.8971
1.18	80.3418
1.174	80.8239
1.168	81.2087
1.162	81.4577
1.156	81.7749
1.15	81.922
1.144	82.0545
1.138	82.197
1.132	82.3277
1.126	82.3754
1.12	82.346
1.114	82.336
1.108	82.4865
1.102	82.5627
1.096	82.6535
1.09	82.7017
1.084	82.5724
1.078	82.687
1.072	82.6103
1.066	82.6394
1.06	82.6208
1.054	82.638
1.048	82.529
1.042	82.4336
1.036	82.2624
1.03	82.2425
1.024	82.2134
1.018	82.1282
1.012	81.9706
1.006	81.7929
1	81.3917
0.994	80.5551
0.988	79.5808
0.982	80.2497
0.976	81.681
0.97	82.5137
0.964	83.0159
0.958	83.2672
0.952	83.3721
0.946	83.5024
0.94	83.4467
0.934	83.603
0.928	83.594
0.922	83.668
0.916	83.6775
0.91	83.7123
0.904	83.6898
0.898	83.6986
0.892	83.8074
0.886	83.921
0.88	84.0889
0.874	84.0592
0.868	84.1798
0.862	84.2696
0.856	84.5641
0.85	84.4517
0.844	84.4107
0.838	84.5312
0.832	84.4624
0.826	84.4811
0.82	84.5103
0.814	84.5037
0.808	84.5539
0.802	84.5511
0.796	84.4117
0.79	84.396
0.784	84.3526
0.778	84.3787
0.772	84.2945
0.766	84.2274
0.76	84.2236
0.754	84.183
0.748	84.312
0.742	84.3577
0.736	84.348
0.73	84.3835
0.724	84.3641
0.718	84.3543
0.712	84.3632
0.706	84.3419
0.7	84.3515
0.694	84.3724
0.688	84.3536
0.682	84.3712
0.676	84.3562
0.67	84.3326
0.664	84.3515
0.658	84.3523
0.652	84.3212
0.646	84.3147
0.64	84.3256
0.634	84.3045
0.628	84.2835
0.622	84.2504
0.616	84.2652
0.61	84.2349
0.604	84.2528
0.598	84.2444
0.592	84.3024
0.586	84.2425
0.58	84.2135
0.574	84.2056
0.568	84.1556
0.562	84.1005
0.556	84.0414
0.55	84.005
0.544	83.9105
0.538	83.7978
0.532	83.7271
0.526	83.6131
0.52	83.4633
0.514	83.3176
0.508	83.1169
0.502	82.9678
0.496	82.7675
0.49	82.5771
0.484	82.3746
0.478	82.1866
0.472	81.9727
0.466	81.7669
0.46	81.603
0.454	81.4326
0.448	81.2561
0.442	81.1172
0.436	80.9519
0.43	80.8209
0.424	80.6957
0.418	80.619
0.412	80.5205
0.406	80.4221
0.4	80.3091
