Name: Olivine Gabbro
Type: Rock
Class: Igneous
Subclass: Mafic
Particle Size: Solid surface
Sample No.: Ward39.txt
Owner: JPL
Origin: Ward's Collection of American Rocks.  Sample locality - Wichita Mountains, Oklahoma.
Description: The hand specimen is a medium grained dark gray rock
Measurement: Hemispherical reflectance
X Units: Wavelength (micrometers)
Y Units: Reflectance (percent)
wavelength	value
2.5	6.39478
2.494	6.4136
2.488	6.29994
2.482	6.50727
2.476	6.40723
2.47	6.65987
2.464	6.65218
2.458	6.63391
2.452	6.70676
2.446	6.75992
2.44	6.79124
2.434	6.89374
2.428	6.92465
2.422	6.91821
2.416	6.93406
2.41	6.99254
2.404	7.08877
2.398	7.10055
2.392	7.19602
2.386	7.15426
2.38	7.2104
2.374	7.22325
2.368	7.21205
2.362	7.25993
2.356	7.22739
2.35	7.23219
2.344	7.25455
2.338	7.22321
2.332	7.24773
2.326	7.23383
2.32	7.2634
2.314	7.32014
2.308	7.33913
2.302	7.34921
2.296	7.34585
2.29	7.38033
2.284	7.36986
2.278	7.46633
2.272	7.49762
2.266	7.46975
2.26	7.53341
2.254	7.44982
2.248	7.48877
2.242	7.5022
2.236	7.56093
2.23	7.62559
2.224	7.58067
2.218	7.62629
2.212	7.80303
2.206	7.71854
2.2	7.63689
2.194	7.7646
2.188	7.78403
2.182	7.78208
2.176	7.79241
2.17	7.72381
2.164	7.8623
2.158	7.94576
2.152	7.82873
2.146	7.83803
2.14	7.85818
2.134	7.86305
2.128	7.85876
2.122	7.86386
2.116	7.79068
2.11	7.79167
2.104	7.79423
2.098	7.78345
2.092	7.79587
2.086	7.76999
2.08	7.82857
2.074	7.73658
2.068	7.80858
2.062	7.81655
2.056	7.81388
2.05	7.851
2.044	7.82003
2.038	7.84404
2.032	7.80874
2.026	7.81266
2.02	7.77982
2.014	7.79466
2.008	7.76178
2.002	7.70799
1.996	7.68596
1.99	7.72955
1.984	7.67291
1.978	7.56429
1.972	7.57912
1.966	7.54633
1.96	7.46435
1.954	7.47093
1.948	7.38871
1.942	7.52412
1.936	7.38406
1.93	7.38992
1.924	7.33053
1.918	7.20737
1.912	7.17856
1.906	7.3255
1.9	7.57484
1.894	7.84862
1.888	7.87246
1.882	7.97948
1.876	7.97132
1.87	8.06499
1.864	8.12828
1.858	8.20383
1.852	8.16101
1.846	8.1185
1.84	8.2075
1.834	8.16906
1.828	8.22232
1.822	8.29317
1.816	8.20783
1.81	8.27777
1.804	8.19787
1.798	8.32797
1.792	8.32427
1.786	8.3334
1.78	8.35538
1.774	8.36692
1.768	8.33593
1.762	8.33287
1.756	8.33519
1.75	8.36858
1.744	8.37562
1.738	8.38088
1.732	8.44655
1.726	8.38207
1.72	8.3715
1.714	8.39785
1.708	8.43806
1.702	8.45347
1.696	8.46054
1.69	8.48428
1.684	8.44755
1.678	8.5173
1.672	8.52384
1.666	8.59631
1.66	8.55844
1.654	8.62841
1.648	8.48869
1.642	8.64531
1.636	8.54768
1.63	8.56219
1.624	8.61866
1.618	8.63817
1.612	8.56479
1.606	8.57841
1.6	8.58858
1.594	8.52892
1.588	8.57536
1.582	8.60573
1.576	8.54608
1.57	8.60722
1.564	8.58638
1.558	8.56304
1.552	8.53537
1.546	8.55528
1.54	8.54344
1.534	8.4833
1.528	8.55306
1.522	8.53134
1.516	8.46102
1.51	8.4679
1.504	8.40601
1.498	8.44552
1.492	8.42244
1.486	8.45279
1.48	8.34323
1.474	8.3624
1.468	8.38302
1.462	8.30232
1.456	8.30924
1.45	8.29223
1.444	8.17075
1.438	8.21058
1.432	8.19699
1.426	8.09415
1.42	8.03077
1.414	8.15368
1.408	8.10268
1.402	8.12029
1.396	8.20635
1.39	8.23237
1.384	8.2565
1.378	8.23673
1.372	8.27965
1.366	8.32126
1.36	8.27956
1.354	8.29003
1.348	8.25232
1.342	8.24584
1.336	8.21971
1.33	8.16258
1.324	8.17438
1.318	8.21356
1.312	8.19705
1.306	8.24449
1.3	8.2951
1.294	8.25695
1.288	8.29969
1.282	8.26872
1.276	8.24473
1.27	8.2553
1.264	8.31016
1.258	8.30396
1.252	8.36456
1.246	8.33871
1.24	8.29767
1.234	8.3369
1.228	8.33052
1.222	8.37542
1.216	8.35637
1.21	8.42183
1.204	8.40231
1.198	8.3902
1.192	8.42652
1.186	8.45217
1.18	8.45246
1.174	8.46889
1.168	8.44474
1.162	8.38988
1.156	8.49783
1.15	8.47411
1.144	8.50629
1.138	8.52721
1.132	8.5873
1.126	8.56213
1.12	8.55206
1.114	8.59657
1.108	8.58666
1.102	8.65783
1.096	8.54677
1.09	8.61708
1.084	8.68136
1.078	8.54861
1.072	8.73755
1.066	8.6537
1.06	8.73687
1.054	8.6812
1.048	8.73718
1.042	8.74694
1.036	8.83654
1.03	8.81992
1.024	8.79516
1.018	8.75751
1.012	8.86148
1.006	8.88625
1	8.82254
0.994	8.89245
0.988	8.89546
0.982	8.9313
0.976	8.91787
0.97	8.90192
0.964	8.98692
0.958	8.92063
0.952	8.96301
0.946	8.97055
0.94	9.00883
0.934	8.95886
0.928	9.01063
0.922	8.98565
0.916	8.99414
0.91	8.97385
0.904	8.95017
0.898	8.94917
0.892	8.98502
0.886	8.95686
0.88	8.92987
0.874	9.00565
0.868	8.95327
0.862	9.0118
0.856	9.068
0.85	9.08991
0.844	9.12312
0.838	9.15376
0.832	9.18522
0.826	9.19951
0.82	9.2341
0.814	9.26451
0.808	9.28016
0.802	9.30782
0.796	9.31682
0.79	9.33055
0.784	9.33317
0.778	9.33891
0.772	9.34989
0.766	9.33749
0.76	9.34801
0.754	9.34297
0.748	9.33855
0.742	9.32148
0.736	9.30831
0.73	9.28878
0.724	9.274
0.718	9.25921
0.712	9.25087
0.706	9.23058
0.7	9.2146
0.694	9.20182
0.688	9.18909
0.682	9.17163
0.676	9.15635
0.67	9.13987
0.664	9.12463
0.658	9.11081
0.652	9.09381
0.646	9.0719
0.64	9.05444
0.634	9.03834
0.628	9.02266
0.622	9.00893
0.616	8.99296
0.61	8.98149
0.604	8.96498
0.598	8.95413
0.592	8.94418
0.586	8.92454
0.58	8.90771
0.574	8.88449
0.568	8.86492
0.562	8.84239
0.556	8.80625
0.55	8.76936
0.544	8.73945
0.538	8.69884
0.532	8.65937
0.526	8.63093
0.52	8.58588
0.514	8.52752
0.508	8.46724
0.502	8.40216
0.496	8.33366
0.49	8.26697
0.484	8.19377
0.478	8.16237
0.472	8.12015
0.466	8.09348
0.46	8.05442
0.454	8.00314
0.448	7.94292
0.442	7.86989
0.436	7.78613
0.43	7.69539
0.424	7.60819
0.418	7.53026
0.412	7.46965
0.406	7.40526
0.4	7.34464
