Name: Corundum Al_2O_3
Type: Mineral
Class: Oxides
Particle Size: 0-45um
Sample No.: O-15A
Owner: JPL
Wavelength Range: VNIR-SWIR
Description: Synthetic corundum.
Measurement: Hemispherical reflectance
X Units: Wavelength (micrometers)
Y Units: Reflectance (percent)
wavelength	value
0.4	90.12
0.403	89.84
0.406	90.08
0.409	90.19
0.412	90.2
0.415	90.31
0.418	90.13
0.421	90.2
0.424	90.02
0.427	90.38
0.43	90.13
0.433	90.19
0.436	90.14
0.439	90.19
0.442	90.31
0.445	90.43
0.448	90.32
0.451	90.2
0.454	90.4
0.457	90.36
0.46	90.43
0.463	90.41
0.466	90.3
0.469	90.48
0.472	90.48
0.475	90.55
0.478	90.39
0.481	90.45
0.484	90.52
0.487	90.6
0.49	90.38
0.493	90.29
0.496	90.36
0.499	90.55
0.502	90.56
0.505	90.44
0.508	90.39
0.511	90.45
0.514	90.46
0.517	90.63
0.52	90.4
0.523	90.45
0.526	90.45
0.529	90.33
0.532	90.5
0.535	90.38
0.538	90.38
0.541	90.16
0.544	90.23
0.547	90.48
0.55	90.49
0.553	90.52
0.556	90.45
0.559	90.39
0.562	90.76
0.565	90.82
0.568	90.53
0.571	90.46
0.574	90.16
0.577	90.24
0.58	90.12
0.583	90.23
0.586	90.12
0.589	90.4
0.592	90.35
0.595	90.12
0.598	90.16
0.601	90.18
0.604	90.47
0.607	90.13
0.61	90.29
0.613	90.19
0.616	90.14
0.619	89.85
0.622	90.07
0.625	90.03
0.628	89.9
0.631	90.08
0.634	90.01
0.637	90.14
0.64	89.91
0.643	90.15
0.646	89.9
0.649	89.96
0.652	89.73
0.655	90.14
0.658	89.96
0.661	89.96
0.664	89.91
0.667	89.91
0.67	89.79
0.673	90.01
0.676	89.91
0.679	89.84
0.682	89.85
0.685	89.84
0.688	90.03
0.691	89.68
0.694	89.85
0.697	89.77
0.7	89.72
0.703	89.78
0.706	89.62
0.709	89.63
0.712	89.57
0.715	89.72
0.718	89.91
0.721	89.73
0.724	89.51
0.727	89.62
0.73	89.62
0.733	89.74
0.736	89.66
0.739	89.52
0.742	89.62
0.745	89.62
0.748	89.58
0.751	89.51
0.754	89.45
0.757	89.4
0.76	89.23
0.763	89.51
0.766	89.46
0.769	89.3
0.772	89.28
0.775	89.42
0.778	89.35
0.781	89.35
0.784	89.3
0.787	89.3
0.79	89.29
0.793	89.29
0.796	89.46
0.799	89.44
0.808	88.73
0.82	88.71
0.832	88.65
0.844	88.7
0.856	88.76
0.868	88.64
0.88	88.64
0.892	88.63
0.904	88.52
0.916	88.51
0.928	88.46
0.94	88.34
0.952	88.28
0.964	88.29
0.976	88.15
0.988	88.22
1	88.23
1.012	88.4
1.024	88.26
1.036	88.28
1.048	88.22
1.06	88.24
1.072	88.25
1.084	88.21
1.096	88.18
1.108	88.08
1.12	88.05
1.132	87.96
1.144	87.93
1.156	87.87
1.168	87.79
1.18	87.74
1.192	87.8
1.204	87.8
1.216	87.7
1.228	87.79
1.24	87.74
1.252	87.65
1.264	87.69
1.276	87.48
1.288	87.58
1.3	87.45
1.312	87.33
1.324	87.21
1.336	87.13
1.348	87.09
1.36	87.11
1.372	86.68
1.384	86.22
1.396	86.19
1.408	86.15
1.42	86.13
1.432	86.14
1.444	86.29
1.456	86.15
1.468	86.17
1.48	86.27
1.492	86.33
1.504	86.15
1.516	86.29
1.528	86.36
1.54	86.36
1.552	86.32
1.564	86.18
1.576	86.17
1.588	86.08
1.6	86.09
1.612	85.94
1.624	85.97
1.636	86.03
1.648	86.18
1.66	86.25
1.672	86.21
1.684	86.12
1.696	86.05
1.708	86.04
1.72	85.98
1.732	85.85
1.744	85.69
1.756	85.6
1.768	85.66
1.78	85.68
1.792	85.6
1.804	85.67
1.816	85.62
1.828	85.62
1.84	85.44
1.852	85.12
1.864	84.57
1.876	83.26
1.888	82.92
1.9	82.46
1.912	81.99
1.924	81.79
1.936	81.6
1.948	81.58
1.96	81.83
1.972	81.99
1.984	82.32
1.996	82.74
2.008	82.82
2.02	83.01
2.032	83.1
2.044	83.11
2.056	83.3
2.068	83.46
2.08	83.66
2.092	84
2.104	84.18
2.116	84.25
2.128	84.27
2.14	84.15
2.152	83.89
2.164	83.49
2.176	83.3
2.188	83.25
2.2	83.17
2.212	82.76
2.224	82.46
2.236	82.31
2.248	82.28
2.26	82.3
2.272	82.31
2.284	82.1
2.296	81.83
2.308	81.73
2.32	81.61
2.332	81.35
2.344	81.07
2.356	80.93
2.368	81.09
2.38	81.07
2.392	80.75
2.404	80.56
2.416	80.46
2.428	80.17
2.44	79.98
2.452	79.74
2.464	79.48
2.476	79.2
2.488	79.31
2.5	79.77
