Name: Anthophyllite (Mg,Fe^2+)_7Si_8O_22(OH)_2
Type: Mineral
Class: Silicates
Subclass: Inosilicates
Particle Size: 125-500um
Sample No.: IN-8A
Owner: JPL
Origin: USA, North Carolina.
Measurement: Hemispherical reflectance
X Units: Wavelength (micrometers)
Y Units: Reflectance (percent)
wavelength	value
2.5	32.7144
2.494	32.5478
2.488	32.5358
2.482	32.4857
2.476	32.1575
2.47	31.5609
2.464	31.031
2.458	31.3117
2.452	31.6201
2.446	31.7891
2.44	31.9471
2.434	32.0064
2.428	32.1307
2.422	32.467
2.416	32.8369
2.41	32.9612
2.404	32.1037
2.398	30.7826
2.392	29.4691
2.386	29.0157
2.38	29.414
2.374	30.4012
2.368	31.5036
2.362	32.3891
2.356	32.9729
2.35	33.0754
2.344	33.0582
2.338	32.5448
2.332	31.1799
2.326	29.0754
2.32	26.4315
2.314	24.2851
2.308	23.7047
2.302	25.0605
2.296	26.5244
2.29	27.4482
2.284	28.693
2.278	31.0436
2.272	33.2411
2.266	34.6761
2.26	35.8105
2.254	36.7153
2.248	37.2361
2.242	37.6079
2.236	37.8101
2.23	38.1686
2.224	38.9979
2.218	39.8165
2.212	40.281
2.206	40.6576
2.2	40.9556
2.194	41.2091
2.188	41.3746
2.182	41.5374
2.176	41.6559
2.17	41.8803
2.164	42.2079
2.158	42.5479
2.152	42.7466
2.146	42.8352
2.14	42.8465
2.134	42.852
2.128	42.9591
2.122	43.1775
2.116	43.2991
2.11	43.3996
2.104	43.6548
2.098	43.7363
2.092	43.8965
2.086	44.0746
2.08	44.1103
2.074	44.4255
2.068	45.0176
2.062	45.3411
2.056	45.5913
2.05	45.7632
2.044	45.8913
2.038	46.0228
2.032	46.1608
2.026	46.1694
2.02	46.1615
2.014	46.1309
2.008	46.3144
2.002	46.4997
1.996	46.5763
1.99	46.6799
1.984	46.8753
1.978	47.0866
1.972	47.3524
1.966	47.5702
1.96	47.7767
1.954	47.9864
1.948	48.2317
1.942	48.5123
1.936	48.7174
1.93	48.9268
1.924	49.0931
1.918	49.2842
1.912	49.4705
1.906	49.7813
1.9	49.9643
1.894	50.2396
1.888	50.447
1.882	50.5714
1.876	50.8565
1.87	50.9452
1.864	51.1525
1.858	51.3388
1.852	51.5372
1.846	51.6354
1.84	51.873
1.834	51.8758
1.828	52.0009
1.822	52.1736
1.816	52.2137
1.81	52.4105
1.804	52.5084
1.798	52.6077
1.792	52.7497
1.786	52.8294
1.78	52.8474
1.774	52.85
1.768	52.95
1.762	52.9765
1.756	53.0952
1.75	53.1931
1.744	53.1493
1.738	53.1961
1.732	53.2718
1.726	53.3232
1.72	53.2494
1.714	53.3848
1.708	53.356
1.702	53.3128
1.696	53.3534
1.69	53.2303
1.684	53.2347
1.678	53.1827
1.672	53.1722
1.666	53.117
1.66	53.119
1.654	52.9827
1.648	52.9514
1.642	52.9088
1.636	52.8266
1.63	52.7116
1.624	52.6578
1.618	52.5645
1.612	52.5101
1.606	52.3934
1.6	52.2873
1.594	52.1964
1.588	52.0187
1.582	51.8216
1.576	51.6988
1.57	51.484
1.564	51.3332
1.558	51.0908
1.552	50.8823
1.546	50.6576
1.54	50.3968
1.534	50.2113
1.528	49.9879
1.522	49.8151
1.516	49.5539
1.51	49.2667
1.504	49.0375
1.498	48.8058
1.492	48.6053
1.486	48.3624
1.48	48.1045
1.474	47.7953
1.468	47.451
1.462	47.1949
1.456	46.7927
1.45	46.4082
1.444	46.0119
1.438	45.7139
1.432	45.3319
1.426	45.002
1.42	44.7398
1.414	44.395
1.408	44.0925
1.402	43.1401
1.396	37.5534
1.39	36.7453
1.384	42.9898
1.378	43.5674
1.372	43.4555
1.366	43.2167
1.36	42.9144
1.354	42.6876
1.348	42.4215
1.342	42.1887
1.336	41.9079
1.33	41.6166
1.324	41.3869
1.318	41.1762
1.312	40.9368
1.306	40.7699
1.3	40.4745
1.294	40.2738
1.288	40.1578
1.282	39.9096
1.276	39.5959
1.27	39.607
1.264	39.4734
1.258	39.3042
1.252	39.1818
1.246	39.02
1.24	38.846
1.234	38.774
1.228	38.6018
1.222	38.4741
1.216	38.3307
1.21	38.2321
1.204	38.0784
1.198	37.9718
1.192	37.8425
1.186	37.703
1.18	37.5879
1.174	37.4274
1.168	37.2831
1.162	37.136
1.156	36.9499
1.15	36.8229
1.144	36.5594
1.138	36.5142
1.132	36.3482
1.126	36.0795
1.12	35.8676
1.114	35.6282
1.108	35.4555
1.102	35.1946
1.096	35.002
1.09	34.7999
1.084	34.6079
1.078	34.3768
1.072	34.0862
1.066	33.9229
1.06	33.698
1.054	33.4235
1.048	33.2411
1.042	33.044
1.036	32.808
1.03	32.5235
1.024	32.2466
1.018	31.8857
1.012	31.5222
1.006	31.2515
1	30.9388
0.994	30.5928
0.988	30.2453
0.982	29.9915
0.976	29.8497
0.97	29.6507
0.964	29.5238
0.958	29.4884
0.952	29.3666
0.946	29.4938
0.94	29.7298
0.934	29.8282
0.928	30.0994
0.922	30.3469
0.916	30.5212
0.91	30.9529
0.904	31.333
0.898	31.7405
0.892	32.1294
0.886	32.5424
0.88	33.1008
0.874	33.6306
0.868	34.0925
0.862	34.6206
0.856	35.4221
0.85	36.0299
0.844	36.6999
0.838	37.3342
0.832	37.9669
0.826	38.6755
0.82	39.3228
0.814	40.0334
0.808	40.6468
0.802	41.3153
0.796	41.8698
0.79	42.4526
0.784	43.0159
0.778	43.499
0.772	43.9422
0.766	44.3753
0.76	44.7537
0.754	45.1085
0.748	45.3938
0.742	45.7228
0.736	45.9783
0.73	46.199
0.724	46.4384
0.718	46.6695
0.712	46.8555
0.706	47.0416
0.7	47.1983
0.694	47.3418
0.688	47.4834
0.682	47.6206
0.676	47.7141
0.67	47.7729
0.664	47.8299
0.658	47.862
0.652	47.8601
0.646	47.8422
0.64	47.8287
0.634	47.8829
0.628	47.9489
0.622	48.0226
0.616	48.1335
0.61	48.2061
0.604	48.2658
0.598	48.3217
0.592	48.3648
0.586	48.3859
0.58	48.3841
0.574	48.3881
0.568	48.3628
0.562	48.3188
0.556	48.1754
0.55	47.964
0.544	47.7936
0.538	47.8344
0.532	47.816
0.526	47.7807
0.52	47.777
0.514	47.7093
0.508	47.3248
0.502	47.0148
0.496	46.5634
0.49	46.263
0.484	46.0168
0.478	45.6555
0.472	44.9489
0.466	44.434
0.46	43.8575
0.454	43.2504
0.448	42.8052
0.442	42.4031
0.436	41.796
0.43	41.1801
0.424	40.6615
0.418	40.0388
0.412	39.3772
0.406	38.7504
0.4	38.0895
