Name: Epidote Ca_2(Al,Fe^3+)_3O.SiO_4.Si_2O_7.OH
Type: Mineral
Class: Silicates
Subclass: Sorosilicate
Particle Size: 45-125um
Sample No.: SS-1C
Owner: JPL
Wavelength Range: VNIR-SWIR
Origin: USA, Colorado
Measurement: Hemispherical reflectance
X Units: Wavelength (micrometers)
Y Units: Reflectance (percent)
wavelength	value
0.4	9.89
0.403	9.99
0.406	10.1
0.409	10.51
0.412	10.85
0.415	11.36
0.418	11.88
0.421	12.4
0.424	13.1
0.427	13.84
0.43	14.71
0.433	15.51
0.436	16.16
0.439	16.62
0.442	16.88
0.445	17.09
0.448	16.74
0.451	15.97
0.454	15.66
0.457	16.11
0.46	16.59
0.463	16.69
0.466	16.42
0.469	16.22
0.472	16.4
0.475	16.81
0.478	17.68
0.481	18.64
0.484	19.85
0.487	20.95
0.49	21.89
0.493	22.87
0.496	23.85
0.499	24.78
0.502	25.46
0.505	26.06
0.508	26.64
0.511	27.34
0.514	27.89
0.517	28.19
0.52	28.69
0.523	28.99
0.526	29.4
0.529	29.76
0.532	30.03
0.535	30.29
0.538	30.47
0.541	30.72
0.544	30.84
0.547	30.85
0.55	31.02
0.553	30.97
0.556	30.95
0.559	31
0.562	31.14
0.565	31.12
0.568	31.03
0.571	30.99
0.574	31.04
0.577	30.86
0.58	30.86
0.583	30.8
0.586	30.76
0.589	30.7
0.592	30.63
0.595	30.8
0.598	30.7
0.601	30.75
0.604	30.78
0.607	30.74
0.61	30.87
0.613	30.91
0.616	31.01
0.619	30.99
0.622	31.26
0.625	31.34
0.628	31.51
0.631	31.55
0.634	31.68
0.637	31.9
0.64	32.01
0.643	32.39
0.646	32.5
0.649	32.83
0.652	32.96
0.655	33.16
0.658	33.5
0.661	33.79
0.664	33.95
0.667	34.19
0.67	34.55
0.673	34.67
0.676	35.02
0.679	35.21
0.682	35.37
0.685	35.66
0.688	35.78
0.691	36.04
0.694	36.15
0.697	36.43
0.7	36.48
0.703	36.81
0.706	36.93
0.709	37.04
0.712	37.16
0.715	37.41
0.718	37.58
0.721	37.66
0.724	37.81
0.727	37.79
0.73	38.08
0.733	38.15
0.736	38.26
0.739	38.34
0.742	38.31
0.745	38.52
0.748	38.56
0.751	38.65
0.754	38.93
0.757	38.91
0.76	38.95
0.763	39.14
0.766	39.18
0.769	39.15
0.772	39.22
0.775	39.22
0.778	39.51
0.781	39.52
0.784	39.49
0.787	39.57
0.79	39.6
0.793	39.74
0.796	39.88
0.799	39.91
0.808	40.5
0.82	40.61
0.832	40.8
0.844	41.03
0.856	41.35
0.868	41.57
0.88	41.72
0.892	42.02
0.904	42.17
0.916	42.17
0.928	42.15
0.94	42.23
0.952	42.12
0.964	42.1
0.976	42.05
0.988	41.94
1	41.95
1.012	41.97
1.024	41.96
1.036	42.23
1.048	42.38
1.06	42.64
1.072	43.21
1.084	43.79
1.096	44.35
1.108	45.11
1.12	45.96
1.132	46.9
1.144	47.69
1.156	48.76
1.168	49.87
1.18	50.81
1.192	51.97
1.204	53.1
1.216	54.11
1.228	55.05
1.24	55.9
1.252	56.75
1.264	57.39
1.276	57.93
1.288	58.61
1.3	59.1
1.312	59.43
1.324	59.86
1.336	60.29
1.348	60.62
1.36	61.05
1.372	61.34
1.384	60.43
1.396	58.99
1.408	60.7
1.42	61.12
1.432	61.61
1.444	61.91
1.456	62.13
1.468	62.4
1.48	62.29
1.492	62.31
1.504	61.98
1.516	61.53
1.528	60.9
1.54	60.36
1.552	60.85
1.564	61.94
1.576	62.6
1.588	63.15
1.6	63.75
1.612	64.04
1.624	64.25
1.636	64.59
1.648	64.9
1.66	65.13
1.672	65.37
1.684	65.58
1.696	65.68
1.708	65.98
1.72	66.34
1.732	66.38
1.744	66.47
1.756	66.71
1.768	66.98
1.78	67.1
1.792	67.3
1.804	67.4
1.816	66.91
1.828	66.39
1.84	67.09
1.852	67.79
1.864	67.59
1.876	66.98
1.888	65.8
1.9	63.75
1.912	63.4
1.924	64.17
1.936	64.54
1.948	65.04
1.96	65.88
1.972	66.68
1.984	67.51
1.996	68.2
2.008	68.69
2.02	69.28
2.032	69.61
2.044	70
2.056	70.2
2.068	70.44
2.08	70.53
2.092	70.65
2.104	70.67
2.116	70.55
2.128	70.67
2.14	70.56
2.152	70.46
2.164	70.21
2.176	69.68
2.188	68.9
2.2	68.32
2.212	67.3
2.224	64.71
2.236	59.89
2.248	55.7
2.26	55.38
2.272	55.3
2.284	52.56
2.296	47.34
2.308	40.98
2.32	36.05
2.332	33.96
2.344	37.07
2.356	44.81
2.368	52.31
2.38	56.64
2.392	59.2
2.404	61.22
2.416	62.45
2.428	62.68
2.44	62.36
2.452	61.53
2.464	60.54
2.476	59.72
2.488	59.11
2.5	58.61
