Name: Quartz SiO_2
Type: Mineral
Class: Silicates
Subclass: Tectosilicates
Particle Size: 0-45um
Sample No.: TS-1D
Owner: JPL
Origin: USA, Coloradi, Buffalo.
Description: Milky quartz
Measurement: Hemispherical reflectance
X Units: Wavelength (micrometers)
Y Units: Reflectance (percent)
wavelength	value
2.5	77.5283
2.494	77.3109
2.488	77.3106
2.482	77.4481
2.476	77.4287
2.47	77.5559
2.464	77.7383
2.458	77.5804
2.452	77.8286
2.446	77.6905
2.44	77.7864
2.434	77.8197
2.428	77.8854
2.422	78.0049
2.416	78.0181
2.41	78.1571
2.404	78.1564
2.398	78.1985
2.392	78.2477
2.386	78.2957
2.38	78.4859
2.374	78.5234
2.368	78.648
2.362	78.6427
2.356	78.7401
2.35	78.741
2.344	78.8449
2.338	78.8193
2.332	78.8016
2.326	78.8479
2.32	78.7492
2.314	78.6599
2.308	78.6757
2.302	78.7459
2.296	78.7101
2.29	78.6072
2.284	78.5997
2.278	78.5709
2.272	78.5648
2.266	78.5389
2.26	78.6317
2.254	78.4813
2.248	78.5244
2.242	78.6408
2.236	78.591
2.23	78.6584
2.224	78.7367
2.218	78.7452
2.212	78.8468
2.206	78.9226
2.2	79.0955
2.194	79.0925
2.188	79.2024
2.182	79.2493
2.176	79.3816
2.17	79.546
2.164	79.6237
2.158	79.7735
2.152	79.8709
2.146	80.0188
2.14	79.9755
2.134	79.8613
2.128	79.7527
2.122	79.4669
2.116	79.2733
2.11	79.0037
2.104	78.7157
2.098	78.5486
2.092	78.6791
2.086	78.734
2.08	78.8327
2.074	78.8691
2.068	78.9996
2.062	79.0147
2.056	79.0607
2.05	79.2186
2.044	79.1852
2.038	79.2869
2.032	79.2221
2.026	79.3285
2.02	79.3892
2.014	79.3378
2.008	79.3099
2.002	79.379
1.996	79.3007
1.99	79.2449
1.984	79.1283
1.978	79.114
1.972	79.132
1.966	79.0461
1.96	79.0681
1.954	79.0783
1.948	79.0445
1.942	79.0611
1.936	79.0867
1.93	79.1238
1.924	79.1934
1.918	79.2062
1.912	79.2947
1.906	79.4289
1.9	79.4387
1.894	79.4974
1.888	79.5461
1.882	79.5917
1.876	79.6019
1.87	79.6844
1.864	79.7488
1.858	79.6712
1.852	79.7505
1.846	79.751
1.84	79.7795
1.834	79.778
1.828	79.8053
1.822	79.8278
1.816	79.8291
1.81	79.8537
1.804	79.8518
1.798	79.8576
1.792	79.9159
1.786	79.8574
1.78	79.8452
1.774	79.7998
1.768	79.8137
1.762	79.8247
1.756	79.7415
1.75	79.7979
1.744	79.8418
1.738	79.8889
1.732	79.9358
1.726	79.8967
1.72	79.958
1.714	79.9345
1.708	79.9213
1.702	79.8369
1.696	79.9063
1.69	79.8001
1.684	79.8559
1.678	79.7709
1.672	79.9549
1.666	79.8599
1.66	79.9017
1.654	79.8865
1.648	79.8547
1.642	79.9059
1.636	79.8243
1.63	79.866
1.624	79.9221
1.618	79.8605
1.612	79.7861
1.606	79.8792
1.6	79.8547
1.594	79.8724
1.588	79.8702
1.582	79.8796
1.576	79.9354
1.57	79.815
1.564	79.8692
1.558	79.8891
1.552	79.9556
1.546	79.86
1.54	79.8077
1.534	79.7874
1.528	79.8015
1.522	79.8611
1.516	79.8252
1.51	79.7845
1.504	79.7688
1.498	79.7197
1.492	79.7713
1.486	79.791
1.48	79.7691
1.474	79.7581
1.468	79.7304
1.462	79.7185
1.456	79.772
1.45	79.7765
1.444	79.7411
1.438	79.7895
1.432	79.7725
1.426	79.7222
1.42	79.7061
1.414	79.7238
1.408	79.7543
1.402	79.8348
1.396	79.8086
1.39	79.9317
1.384	79.8066
1.378	79.8637
1.372	79.8033
1.366	79.9128
1.36	79.907
1.354	79.8032
1.348	79.7484
1.342	79.8339
1.336	79.7877
1.33	79.8213
1.324	79.8324
1.318	79.7537
1.312	79.8455
1.306	79.7618
1.3	79.828
1.294	79.7402
1.288	79.719
1.282	79.7922
1.276	79.7275
1.27	79.7807
1.264	79.7432
1.258	79.7137
1.252	79.754
1.246	79.7653
1.24	79.7337
1.234	79.7133
1.228	79.6704
1.222	79.7179
1.216	79.7478
1.21	79.7502
1.204	79.7245
1.198	79.7246
1.192	79.6953
1.186	79.7351
1.18	79.778
1.174	79.7499
1.168	79.7959
1.162	79.7847
1.156	79.7485
1.15	79.7335
1.144	79.8132
1.138	79.8424
1.132	79.7912
1.126	79.7872
1.12	79.8101
1.114	79.8278
1.108	79.8017
1.102	79.8118
1.096	79.7165
1.09	79.8531
1.084	79.8817
1.078	79.8816
1.072	79.8489
1.066	79.7441
1.06	79.8414
1.054	79.8632
1.048	79.8169
1.042	79.7996
1.036	79.837
1.03	79.8804
1.024	79.8551
1.018	79.8376
1.012	79.8661
1.006	79.8539
1	79.8847
0.994	79.9211
0.988	79.895
0.982	79.9531
0.976	79.9056
0.97	79.917
0.964	79.8752
0.958	79.9491
0.952	79.9445
0.946	79.8937
0.94	79.9672
0.934	79.9931
0.928	79.9445
0.922	79.9823
0.916	79.9821
0.91	79.9596
0.904	79.9734
0.898	79.9699
0.892	80.0139
0.886	79.9556
0.88	79.9906
0.874	80.0469
0.868	80.0536
0.862	80.0329
0.856	80.2865
0.85	80.2018
0.844	80.2401
0.838	80.2546
0.832	80.2237
0.826	80.2515
0.82	80.2448
0.814	80.273
0.808	80.2285
0.802	80.2668
0.796	80.2222
0.79	80.148
0.784	80.199
0.778	80.2196
0.772	80.1526
0.766	80.1479
0.76	80.1475
0.754	80.1028
0.748	80.1583
0.742	80.1192
0.736	80.1097
0.73	80.1239
0.724	80.1195
0.718	80.0986
0.712	80.0831
0.706	80.1023
0.7	80.0839
0.694	80.0761
0.688	80.0605
0.682	80.0672
0.676	80.0516
0.67	80.0458
0.664	80.0161
0.658	80.0296
0.652	80.0143
0.646	79.9992
0.64	79.9828
0.634	79.9729
0.628	79.95
0.622	79.9432
0.616	79.9084
0.61	79.8982
0.604	79.8741
0.598	79.899
0.592	79.9231
0.586	79.8704
0.58	79.8645
0.574	79.8085
0.568	79.7733
0.562	79.7337
0.556	79.6907
0.55	79.6321
0.544	79.5702
0.538	79.5461
0.532	79.4785
0.526	79.4066
0.52	79.3347
0.514	79.2926
0.508	79.2088
0.502	79.144
0.496	79.0543
0.49	78.9431
0.484	78.835
0.478	78.7587
0.472	78.6724
0.466	78.5605
0.46	78.4237
0.454	78.2928
0.448	78.0996
0.442	77.8603
0.436	77.5922
0.43	77.2513
0.424	77.0217
0.418	76.8419
0.412	76.7429
0.406	76.6825
0.4	76.5761
