Name: Jarosite KFe_3^3+(SO_4)_2(OH)_6
Type: Mineral
Class: Sulfates
Particle Size: 125-500um
Sample No.: SO-7A
Owner: JPL
Wavelength Range: VNIR-SWIR
Origin: Mexico, Chihuahua
Measurement: Hemispherical reflectance
X Units: Wavelength (micrometers)
Y Units: Reflectance (percent)
wavelength	value
0.4	4.06
0.403	4.19
0.406	4.43
0.409	4.78
0.412	4.97
0.415	5.21
0.418	5.43
0.421	5.69
0.424	5.91
0.427	5.97
0.43	6.08
0.433	6.08
0.436	6.04
0.439	6.28
0.442	6.49
0.445	6.85
0.448	7.28
0.451	7.64
0.454	8.23
0.457	8.56
0.46	8.86
0.463	9.42
0.466	9.77
0.469	10.18
0.472	10.74
0.475	11.22
0.478	11.74
0.481	12.25
0.484	12.74
0.487	13.24
0.49	13.72
0.493	14.25
0.496	14.73
0.499	15.15
0.502	15.5
0.505	15.94
0.508	16.31
0.511	16.58
0.514	16.88
0.517	17.16
0.52	17.45
0.523	17.88
0.526	18.07
0.529	18.19
0.532	18.45
0.535	18.71
0.538	18.99
0.541	19.12
0.544	19.33
0.547	19.62
0.55	19.89
0.553	20.09
0.556	20.3
0.559	20.57
0.562	20.94
0.565	21.3
0.568	21.64
0.571	21.87
0.574	22.11
0.577	22.44
0.58	22.84
0.583	23.25
0.586	23.64
0.589	24.07
0.592	24.49
0.595	25.03
0.598	25.53
0.601	26.04
0.604	26.54
0.607	27.11
0.61	27.69
0.613	28.22
0.616	28.74
0.619	29.18
0.622	29.75
0.625	30.38
0.628	30.91
0.631	31.39
0.634	31.88
0.637	32.35
0.64	32.87
0.643	33.26
0.646	33.78
0.649	34.16
0.652	34.6
0.655	35.06
0.658	35.47
0.661	35.82
0.664	36.16
0.667	36.55
0.67	36.98
0.673	37.41
0.676	37.71
0.679	38.1
0.682	38.39
0.685	38.8
0.688	39.25
0.691	39.49
0.694	39.92
0.697	40.25
0.7	40.46
0.703	41
0.706	41.32
0.709	41.74
0.712	42.01
0.715	42.21
0.718	42.31
0.721	42.67
0.724	42.81
0.727	42.99
0.73	43.06
0.733	42.99
0.736	42.98
0.739	43.01
0.742	42.85
0.745	42.79
0.748	42.72
0.751	42.45
0.754	42.13
0.757	42.01
0.76	41.74
0.763	41.33
0.766	40.99
0.769	40.7
0.772	40.39
0.775	40.01
0.778	39.67
0.781	39.28
0.784	38.95
0.787	38.59
0.79	38.32
0.793	37.93
0.796	37.57
0.799	37.22
0.808	36.52
0.82	35.35
0.832	34.18
0.844	33.29
0.856	32.6
0.868	31.92
0.88	31.42
0.892	31.22
0.904	31.1
0.916	31.04
0.928	31.16
0.94	31.4
0.952	31.84
0.964	32.41
0.976	32.96
0.988	33.7
1	34.29
1.012	35.23
1.024	36.16
1.036	37.04
1.048	38
1.06	38.87
1.072	39.88
1.084	40.9
1.096	41.9
1.108	43.01
1.12	44.05
1.132	45.21
1.144	46.3
1.156	47.51
1.168	48.72
1.18	49.93
1.192	51.13
1.204	52.33
1.216	53.65
1.228	54.99
1.24	56.22
1.252	57.53
1.264	58.84
1.276	60.21
1.288	61.51
1.3	62.86
1.312	64.16
1.324	65.35
1.336	66.63
1.348	67.87
1.36	69.1
1.372	70.01
1.384	70.96
1.396	71.5
1.408	71.86
1.42	72.11
1.432	72.29
1.444	71.98
1.456	70.72
1.468	69.16
1.48	68.93
1.492	70.53
1.504	71.44
1.516	71.65
1.528	71.72
1.54	72.09
1.552	72.41
1.564	72.61
1.576	72.8
1.588	72.89
1.6	72.81
1.612	72.69
1.624	72.54
1.636	72.29
1.648	72.08
1.66	71.77
1.672	71.5
1.684	71.31
1.696	70.97
1.708	70.5
1.72	69.88
1.732	69.27
1.744	68.6
1.756	67.78
1.768	67.06
1.78	66.29
1.792	65.69
1.804	65.03
1.816	64.2
1.828	62.97
1.84	61.66
1.852	60.46
1.864	60.17
1.876	60.63
1.888	61.2
1.9	61.23
1.912	60.95
1.924	60.63
1.936	60.56
1.948	60.5
1.96	60.65
1.972	60.86
1.984	61.07
1.996	61.17
2.008	61.25
2.02	61.29
2.032	61.21
2.044	61.05
2.056	60.87
2.068	60.72
2.08	60.53
2.092	60.12
2.104	59.84
2.116	59.62
2.128	59.15
2.14	58.67
2.152	57.95
2.164	57.26
2.176	56.45
2.188	55.35
2.2	54.49
2.212	53.33
2.224	52.33
2.236	50.94
2.248	49.35
2.26	47.73
2.272	46.4
2.284	46.12
2.296	46.8
2.308	48.06
2.32	49.42
2.332	50.38
2.344	50.7
2.356	50.38
2.368	49.63
2.38	48.54
2.392	47.4
2.404	46.57
2.416	45.67
2.428	44.8
2.44	44.08
2.452	43.33
2.464	42.87
2.476	42.59
2.488	42.37
2.5	42.12
