Name: Labradorite (Feldspar) (NaSi,CaAl)AlSi_2O_8
Type: Mineral
Class: Silicates
Subclass: Tectosilicates
Particle Size: 125-500um
Sample No.: TS-2B
Owner: JPL
Origin: Canada, Quebec, Lake St. John.
Measurement: Hemispherical reflectance
X Units: Wavelength (micrometers)
Y Units: Reflectance (percent)
wavelength	value
2.5	17.4626
2.494	17.3175
2.488	17.4336
2.482	17.397
2.476	17.2571
2.47	17.2689
2.464	17.3247
2.458	17.3626
2.452	17.2921
2.446	17.2915
2.44	17.2272
2.434	17.2883
2.428	17.1985
2.422	17.2978
2.416	17.2453
2.41	17.1444
2.404	17.2331
2.398	17.1758
2.392	17.2231
2.386	17.1137
2.38	17.1365
2.374	17.13
2.368	17.1329
2.362	17.0409
2.356	17.0405
2.35	16.9141
2.344	16.9633
2.338	16.9016
2.332	16.8362
2.326	16.8415
2.32	16.7967
2.314	16.7994
2.308	16.7898
2.302	16.8287
2.296	16.7764
2.29	16.7823
2.284	16.8269
2.278	16.7356
2.272	16.6447
2.266	16.6129
2.26	16.5685
2.254	16.5422
2.248	16.6002
2.242	16.4501
2.236	16.5036
2.23	16.4011
2.224	16.3959
2.218	16.3426
2.212	16.3365
2.206	16.2825
2.2	16.338
2.194	16.2173
2.188	16.2981
2.182	16.3484
2.176	16.4334
2.17	16.4479
2.164	16.5176
2.158	16.3658
2.152	16.4531
2.146	16.3755
2.14	16.437
2.134	16.3795
2.128	16.3055
2.122	16.26
2.116	16.1767
2.11	16.1195
2.104	16.086
2.098	16.0269
2.092	16.0586
2.086	16.063
2.08	16.0133
2.074	15.9729
2.068	15.9731
2.062	15.9739
2.056	15.9872
2.05	15.8906
2.044	15.8918
2.038	15.8716
2.032	15.8178
2.026	15.8504
2.02	15.7456
2.014	15.7831
2.008	15.7231
2.002	15.6058
1.996	15.6695
1.99	15.62
1.984	15.4806
1.978	15.4405
1.972	15.3474
1.966	15.371
1.96	15.2392
1.954	15.219
1.948	15.1776
1.942	15.1201
1.936	14.976
1.93	15.0247
1.924	14.9356
1.918	14.9014
1.912	14.9552
1.906	14.9245
1.9	14.9814
1.894	15.1248
1.888	15.2056
1.882	15.2141
1.876	15.2034
1.87	15.1151
1.864	15.174
1.858	15.1211
1.852	15.1715
1.846	15.1099
1.84	15.1428
1.834	15.0874
1.828	15.1617
1.822	15.1286
1.816	15.0257
1.81	15.0622
1.804	15.0539
1.798	14.9725
1.792	14.9948
1.786	14.9948
1.78	14.9084
1.774	14.8799
1.768	14.8352
1.762	14.8065
1.756	14.8838
1.75	14.8168
1.744	14.7856
1.738	14.7615
1.732	14.7645
1.726	14.7412
1.72	14.8096
1.714	14.628
1.708	14.7394
1.702	14.6516
1.696	14.663
1.69	14.6677
1.684	14.5512
1.678	14.5332
1.672	14.5307
1.666	14.5012
1.66	14.5959
1.654	14.4948
1.648	14.5166
1.642	14.5689
1.636	14.5668
1.63	14.4535
1.624	14.4491
1.618	14.4669
1.612	14.3889
1.606	14.4527
1.6	14.4875
1.594	14.4201
1.588	14.4727
1.582	14.3977
1.576	14.375
1.57	14.4198
1.564	14.4599
1.558	14.4182
1.552	14.3767
1.546	14.3429
1.54	14.4083
1.534	14.3498
1.528	14.3177
1.522	14.3436
1.516	14.3843
1.51	14.3707
1.504	14.3474
1.498	14.41
1.492	14.3463
1.486	14.3471
1.48	14.3021
1.474	14.3342
1.468	14.3703
1.462	14.3453
1.456	14.3643
1.45	14.2977
1.444	14.375
1.438	14.326
1.432	14.2718
1.426	14.306
1.42	14.2947
1.414	14.2054
1.408	14.1923
1.402	14.3526
1.396	14.3878
1.39	14.5101
1.384	14.4948
1.378	14.5439
1.372	14.5668
1.366	14.5861
1.36	14.6019
1.354	14.5742
1.348	14.5409
1.342	14.6324
1.336	14.6446
1.33	14.7076
1.324	14.6701
1.318	14.6717
1.312	14.7649
1.306	14.7522
1.3	14.7394
1.294	14.7816
1.288	14.8213
1.282	14.794
1.276	14.8627
1.27	14.9055
1.264	14.9279
1.258	14.9414
1.252	14.9589
1.246	15.0276
1.24	14.9948
1.234	15.1084
1.228	15.151
1.222	15.1885
1.216	15.156
1.21	15.2397
1.204	15.2823
1.198	15.3269
1.192	15.3842
1.186	15.4841
1.18	15.4857
1.174	15.5619
1.168	15.5756
1.162	15.6191
1.156	15.718
1.15	15.7323
1.144	15.7919
1.138	15.893
1.132	15.9551
1.126	15.9862
1.12	16.0751
1.114	16.1983
1.108	16.225
1.102	16.3009
1.096	16.3794
1.09	16.5265
1.084	16.4368
1.078	16.5879
1.072	16.6599
1.066	16.7533
1.06	16.9306
1.054	16.9962
1.048	16.9991
1.042	17.0985
1.036	17.1622
1.03	17.2466
1.024	17.3447
1.018	17.4074
1.012	17.4383
1.006	17.5901
1	17.6255
0.994	17.6172
0.988	17.6693
0.982	17.7474
0.976	17.9019
0.97	17.8874
0.964	17.9458
0.958	17.8895
0.952	17.9064
0.946	17.8673
0.94	17.8797
0.934	17.8678
0.928	17.8806
0.922	17.8038
0.916	17.7674
0.91	17.6884
0.904	17.649
0.898	17.5251
0.892	17.4761
0.886	17.3035
0.88	17.2433
0.874	17.1433
0.868	17.0821
0.862	16.9397
0.856	17.0226
0.85	16.9624
0.844	16.8645
0.838	16.7949
0.832	16.7178
0.826	16.637
0.82	16.5304
0.814	16.4393
0.808	16.3355
0.802	16.2295
0.796	16.0673
0.79	15.9304
0.784	15.8025
0.778	15.6354
0.772	15.4599
0.766	15.2982
0.76	15.094
0.754	14.892
0.748	14.6867
0.742	14.4744
0.736	14.2503
0.73	14.0306
0.724	13.8063
0.718	13.5856
0.712	13.3684
0.706	13.1571
0.7	12.9564
0.694	12.7597
0.688	12.58
0.682	12.4087
0.676	12.2458
0.67	12.0914
0.664	11.9489
0.658	11.8174
0.652	11.6911
0.646	11.5709
0.64	11.4614
0.634	11.3614
0.628	11.26
0.622	11.1652
0.616	11.0713
0.61	10.9806
0.604	10.894
0.598	10.8069
0.592	10.7221
0.586	10.6318
0.58	10.5366
0.574	10.4401
0.568	10.3415
0.562	10.2546
0.556	10.1485
0.55	10.0795
0.544	10.0252
0.538	9.98873
0.532	9.97005
0.526	9.95947
0.52	9.95914
0.514	9.96354
0.508	9.96461
0.502	9.96395
0.496	9.95643
0.49	9.94074
0.484	9.92502
0.478	9.95847
0.472	9.99688
0.466	10.0251
0.46	10.0548
0.454	10.0722
0.448	10.0834
0.442	10.0943
0.436	10.1114
0.43	10.113
0.424	10.1091
0.418	10.1162
0.412	10.1315
0.406	10.1482
0.4	10.155
