Name: Wollastonite CaSiO_3
Type: Mineral
Class: Silicates
Subclass: Inosilicates
Particle Size: 45-125um
Sample No.: IN-2A
Owner: JPL
Origin: USA, California, Inyo County, Panamint Mountains.
Measurement: Hemispherical reflectance
X Units: Wavelength (micrometers)
Y Units: Reflectance (percent)
wavelength	value
2.5	73.6357
2.494	73.6988
2.488	73.7483
2.482	73.8449
2.476	73.9047
2.47	74.0317
2.464	74.2918
2.458	74.7102
2.452	74.8463
2.446	75.0547
2.44	75.1645
2.434	75.3378
2.428	75.2403
2.422	75.3082
2.416	75.2449
2.41	75.0205
2.404	74.9356
2.398	74.8136
2.392	74.6699
2.386	74.6028
2.38	74.6022
2.374	74.6207
2.368	74.3264
2.362	74.0501
2.356	73.8297
2.35	73.9551
2.344	74.2662
2.338	74.5551
2.332	74.9431
2.326	75.6134
2.32	76.4933
2.314	77.1802
2.308	77.5461
2.302	77.6083
2.296	77.4934
2.29	77.3629
2.284	77.3698
2.278	77.4632
2.272	77.5461
2.266	77.7368
2.26	77.8585
2.254	77.8426
2.248	77.6909
2.242	77.5733
2.236	77.5333
2.23	77.6055
2.224	77.8328
2.218	78.0895
2.212	78.4407
2.206	78.6556
2.2	78.9642
2.194	79.0134
2.188	79.1324
2.182	79.2917
2.176	79.3679
2.17	79.5503
2.164	79.7335
2.158	79.8707
2.152	79.9925
2.146	79.9979
2.14	80.0153
2.134	79.8547
2.128	79.734
2.122	79.4509
2.116	79.2556
2.11	78.9451
2.104	78.7188
2.098	78.6188
2.092	78.6717
2.086	78.7465
2.08	78.7951
2.074	78.8045
2.068	78.7848
2.062	78.9751
2.056	78.9784
2.05	78.9741
2.044	78.9766
2.038	79.0611
2.032	79.0595
2.026	78.9595
2.02	78.8711
2.014	78.8324
2.008	78.76
2.002	78.7243
1.996	78.5722
1.99	78.3901
1.984	78.3084
1.978	78.1218
1.972	77.9712
1.966	77.8945
1.96	77.7958
1.954	77.6943
1.948	77.582
1.942	77.5511
1.936	77.4456
1.93	77.3619
1.924	77.2444
1.918	77.26
1.912	77.3981
1.906	77.8314
1.9	78.4504
1.894	78.9221
1.888	79.2958
1.882	79.5654
1.876	79.7856
1.87	79.9697
1.864	80.0774
1.858	80.1001
1.852	80.1485
1.846	80.1588
1.84	80.1958
1.834	80.1185
1.828	80.2127
1.822	80.1991
1.816	80.2293
1.81	80.2207
1.804	80.23
1.798	80.2392
1.792	80.2186
1.786	80.1897
1.78	80.1255
1.774	80.0629
1.768	80.0815
1.762	80.0672
1.756	80.0864
1.75	80.0637
1.744	80.0457
1.738	80.0798
1.732	80.0469
1.726	80.12
1.72	80.0571
1.714	80.0553
1.708	80.0113
1.702	79.9717
1.696	79.8581
1.69	79.9225
1.684	79.8286
1.678	79.8455
1.672	79.7221
1.666	79.7266
1.66	79.7506
1.654	79.6406
1.648	79.6328
1.642	79.6598
1.636	79.6478
1.63	79.5758
1.624	79.5653
1.618	79.4963
1.612	79.4606
1.606	79.4674
1.6	79.4628
1.594	79.4848
1.588	79.426
1.582	79.434
1.576	79.3776
1.57	79.252
1.564	79.3623
1.558	79.3247
1.552	79.2325
1.546	79.2455
1.54	79.2086
1.534	79.1539
1.528	79.1455
1.522	79.1301
1.516	79.043
1.51	79.0521
1.504	78.9844
1.498	78.9696
1.492	78.8188
1.486	78.5636
1.48	78.1582
1.474	78.2049
1.468	78.5632
1.462	78.7386
1.456	78.6759
1.45	78.729
1.444	78.7073
1.438	78.6927
1.432	78.6789
1.426	78.6921
1.42	78.7688
1.414	78.8022
1.408	78.939
1.402	78.9422
1.396	79.0222
1.39	79.1495
1.384	79.0861
1.378	79.091
1.372	79.1275
1.366	79.0756
1.36	78.9474
1.354	79.0843
1.348	79.0032
1.342	78.9157
1.336	78.8641
1.33	78.9531
1.324	78.7568
1.318	78.7331
1.312	78.6699
1.306	78.6087
1.3	78.5413
1.294	78.4353
1.288	78.4084
1.282	78.3407
1.276	78.2479
1.27	78.2
1.264	78.0785
1.258	77.9668
1.252	77.9237
1.246	77.7719
1.24	77.752
1.234	77.6655
1.228	77.5421
1.222	77.5008
1.216	77.4331
1.21	77.3854
1.204	77.2838
1.198	77.1977
1.192	77.1139
1.186	77.0406
1.18	76.9981
1.174	76.9469
1.168	76.9247
1.162	76.9103
1.156	76.8687
1.15	76.8316
1.144	76.8451
1.138	76.8611
1.132	76.8868
1.126	76.8345
1.12	76.8645
1.114	76.8407
1.108	76.9171
1.102	76.9129
1.096	76.9118
1.09	76.9675
1.084	76.9707
1.078	76.986
1.072	77.042
1.066	77.0438
1.06	77.2183
1.054	77.1064
1.048	77.2537
1.042	77.1971
1.036	77.2578
1.03	77.3084
1.024	77.3393
1.018	77.3081
1.012	77.2935
1.006	77.2614
1	77.4208
0.994	77.301
0.988	77.3619
0.982	77.3724
0.976	77.3947
0.97	77.4711
0.964	77.4739
0.958	77.5521
0.952	77.6437
0.946	77.7334
0.94	77.8518
0.934	77.8981
0.928	78.0623
0.922	78.1903
0.916	78.3031
0.91	78.4967
0.904	78.6906
0.898	78.7926
0.892	79.0005
0.886	79.1737
0.88	79.3432
0.874	79.5892
0.868	79.7573
0.862	79.8939
0.856	80.1678
0.85	80.3021
0.844	80.4383
0.838	80.6806
0.832	80.8539
0.826	80.9515
0.82	81.1309
0.814	81.2477
0.808	81.3512
0.802	81.5206
0.796	81.4768
0.79	81.5558
0.784	81.6038
0.778	81.6811
0.772	81.7226
0.766	81.7619
0.76	81.794
0.754	81.7863
0.748	81.7744
0.742	81.8182
0.736	81.7799
0.73	81.7836
0.724	81.7547
0.718	81.7035
0.712	81.6555
0.706	81.5993
0.7	81.5426
0.694	81.448
0.688	81.3858
0.682	81.4337
0.676	81.4054
0.67	81.3215
0.664	81.2672
0.658	81.2425
0.652	81.2295
0.646	81.2555
0.64	81.2371
0.634	81.2467
0.628	81.2535
0.622	81.2978
0.616	81.3276
0.61	81.3949
0.604	81.4266
0.598	81.4929
0.592	81.5638
0.586	81.5838
0.58	81.5865
0.574	81.5785
0.568	81.5631
0.562	81.5479
0.556	81.4578
0.55	81.3934
0.544	81.3026
0.538	81.194
0.532	81.0605
0.526	80.9176
0.52	80.7639
0.514	80.6
0.508	80.3894
0.502	80.1617
0.496	79.9186
0.49	79.616
0.484	79.308
0.478	79.0933
0.472	78.8666
0.466	78.5909
0.46	78.3011
0.454	78.0107
0.448	77.7261
0.442	77.4933
0.436	77.2612
0.43	77.0459
0.424	76.8
0.418	76.6257
0.412	76.3912
0.406	76.1609
0.4	75.9425
