Name: Kernite Na_2B_4O_6(OH)_2.3H_2O
Type: Mineral
Class: Borates
Particle Size: <45um
Sample No.: B-2A
Owner: JPL
Origin: USA, California, Kern County, Boron.
Measurement: Hemispherical reflectance
X Units: Wavelength (micrometers)
Y Units: Reflectance (percent)
wavelength	value
2.5	41.0221
2.494	41.1673
2.488	41.2182
2.482	41.3498
2.476	41.5858
2.47	41.6851
2.464	41.8635
2.458	41.9931
2.452	42.0002
2.446	42.0395
2.44	42.0463
2.434	42.2695
2.428	42.5106
2.422	42.9181
2.416	43.27
2.41	43.7536
2.404	44.2445
2.398	44.7901
2.392	45.587
2.386	46.5769
2.38	47.7395
2.374	48.9324
2.368	50.0565
2.362	51.0559
2.356	51.8731
2.35	52.521
2.344	53.2118
2.338	53.8436
2.332	54.4859
2.326	55.043
2.32	55.4085
2.314	55.5979
2.308	55.5821
2.302	55.2888
2.296	54.8278
2.29	54.1569
2.284	53.5363
2.278	53.0585
2.272	52.7252
2.266	52.4592
2.26	52.2129
2.254	51.9369
2.248	51.7688
2.242	51.4315
2.236	50.6978
2.23	49.7054
2.224	48.7648
2.218	47.7291
2.212	46.524
2.206	44.8597
2.2	42.7085
2.194	40.3183
2.188	39.5172
2.182	41.3149
2.176	44.6398
2.17	47.5306
2.164	49.2197
2.158	50.0712
2.152	50.6103
2.146	51.095
2.14	51.3404
2.134	51.5765
2.128	51.6289
2.122	51.5797
2.116	51.3651
2.11	51.0271
2.104	50.6061
2.098	50.1619
2.092	49.8855
2.086	49.4415
2.08	49.0034
2.074	48.5291
2.068	47.9135
2.062	47.0552
2.056	45.8099
2.05	45.0315
2.044	45.1002
2.038	45.0297
2.032	44.869
2.026	44.7715
2.02	44.4738
2.014	43.9258
2.008	43.4016
2.002	42.9961
1.996	42.6908
1.99	42.4378
1.984	42.3679
1.978	42.2973
1.972	42.3161
1.966	42.7939
1.96	43.6204
1.954	44.8262
1.948	46.3409
1.942	48.0163
1.936	49.7039
1.93	51.4499
1.924	53.0922
1.918	54.6677
1.912	56.2115
1.906	57.7892
1.9	59.4843
1.894	61.2019
1.888	62.7187
1.882	63.8282
1.876	64.7085
1.87	65.3771
1.864	65.8141
1.858	66.0914
1.852	66.2806
1.846	66.2953
1.84	66.2698
1.834	66.1841
1.828	66.0795
1.822	65.8461
1.816	65.7167
1.81	65.4752
1.804	65.2257
1.798	65.0296
1.792	64.8676
1.786	64.8226
1.78	65.0642
1.774	65.3321
1.768	65.6206
1.762	65.8327
1.756	66.0972
1.75	66.2913
1.744	66.499
1.738	66.7201
1.732	66.8962
1.726	67.1519
1.72	67.3124
1.714	67.5218
1.708	67.6674
1.702	67.6906
1.696	67.8054
1.69	67.8874
1.684	68.0741
1.678	67.9919
1.672	68.0411
1.666	67.9246
1.66	67.8661
1.654	67.7489
1.648	67.4838
1.642	67.3244
1.636	67.0727
1.63	66.8386
1.624	66.5645
1.618	66.3752
1.612	66.0572
1.606	65.7751
1.6	65.5776
1.594	65.3097
1.588	65.2112
1.582	64.9562
1.576	64.866
1.57	64.7556
1.564	64.6979
1.558	64.6544
1.552	64.6641
1.546	64.6532
1.54	64.7636
1.534	64.8609
1.528	64.6604
1.522	64.4165
1.516	64.029
1.51	63.6799
1.504	63.4366
1.498	63.3086
1.492	63.439
1.486	63.7081
1.48	64.1273
1.474	64.8421
1.468	65.6398
1.462	66.0164
1.456	65.8431
1.45	63.5554
1.444	60.4661
1.438	61.2261
1.432	65.2972
1.426	70.0777
1.42	74.1326
1.414	76.8677
1.408	78.2668
1.402	80.0145
1.396	81.1193
1.39	81.7321
1.384	82.1054
1.378	82.3007
1.372	82.4611
1.366	82.7641
1.36	82.9629
1.354	83.2295
1.348	83.2576
1.342	83.5735
1.336	83.6037
1.33	83.622
1.324	83.4457
1.318	83.368
1.312	83.642
1.306	83.9561
1.3	84.1697
1.294	84.2177
1.288	84.2376
1.282	84.2233
1.276	84.0361
1.27	83.6335
1.264	83.3194
1.258	83.2779
1.252	83.5712
1.246	83.8083
1.24	84.0211
1.234	84.2728
1.228	84.432
1.222	84.6009
1.216	84.702
1.21	84.746
1.204	84.9003
1.198	85.1166
1.192	85.5084
1.186	85.7247
1.18	85.9649
1.174	86.2777
1.168	86.5095
1.162	86.5779
1.156	86.7822
1.15	86.8799
1.144	86.9286
1.138	87.0698
1.132	87.1256
1.126	87.1781
1.12	87.1737
1.114	87.1065
1.108	87.2085
1.102	87.2062
1.096	87.3629
1.09	87.3288
1.084	87.2969
1.078	87.3697
1.072	87.3416
1.066	87.3546
1.06	87.3129
1.054	87.3325
1.048	87.2214
1.042	87.1198
1.036	87.0905
1.03	87.1188
1.024	87.0725
1.018	87.0133
1.012	86.8838
1.006	86.8146
1	86.5821
0.994	86.0386
0.988	85.5817
0.982	85.9274
0.976	86.751
0.97	87.291
0.964	87.4929
0.958	87.6601
0.952	87.6806
0.946	87.7452
0.94	87.7509
0.934	87.7648
0.928	87.7301
0.922	87.9041
0.916	87.8546
0.91	87.9021
0.904	87.891
0.898	87.8594
0.892	87.867
0.886	87.9383
0.88	87.9643
0.874	87.9711
0.868	88.0757
0.862	88.0583
0.856	88.3573
0.85	88.3644
0.844	88.2379
0.838	88.3229
0.832	88.3667
0.826	88.3927
0.82	88.347
0.814	88.362
0.808	88.3122
0.802	88.297
0.796	88.229
0.79	88.1737
0.784	88.1578
0.778	88.1734
0.772	88.1015
0.766	87.9567
0.76	88.0259
0.754	87.9736
0.748	88.017
0.742	88.0367
0.736	88.0013
0.73	88.0077
0.724	87.9967
0.718	87.9544
0.712	87.9527
0.706	87.9204
0.7	87.9246
0.694	87.9193
0.688	87.8725
0.682	87.8872
0.676	87.8702
0.67	87.831
0.664	87.8319
0.658	87.8097
0.652	87.7623
0.646	87.7212
0.64	87.695
0.634	87.6844
0.628	87.6143
0.622	87.5828
0.616	87.5733
0.61	87.5227
0.604	87.505
0.598	87.4808
0.592	87.5035
0.586	87.437
0.58	87.3556
0.574	87.3121
0.568	87.2436
0.562	87.1673
0.556	87.0474
0.55	86.9732
0.544	86.8463
0.538	86.7348
0.532	86.5721
0.526	86.4289
0.52	86.255
0.514	86.0617
0.508	85.8417
0.502	85.5834
0.496	85.3465
0.49	85.0801
0.484	84.7806
0.478	84.5892
0.472	84.3408
0.466	84.0899
0.46	83.8824
0.454	83.6158
0.448	83.365
0.442	83.0905
0.436	82.8033
0.43	82.5267
0.424	82.2658
0.418	81.9952
0.412	81.7184
0.406	81.4364
0.4	81.1462
