Name: Quartz SiO_2
Type: Mineral
Class: Silicates
Subclass: Tectosilicates
Particle Size: 45-125um
Sample No.: TS-1B
Owner: JPL
Wavelength Range: VNIR-SWIR
Origin: Brazil, Minas Gerais
Description: Smoky quartz.
Measurement: Hemispherical reflectance
X Units: Wavelength (micrometers)
Y Units: Reflectance (percent)
wavelength	value
0.4	61.55
0.403	61.52
0.406	61.46
0.409	61.42
0.412	61.44
0.415	61.42
0.418	61.42
0.421	61.4
0.424	61.56
0.427	61.26
0.43	61.46
0.433	61.42
0.436	61.5
0.439	61.55
0.442	61.35
0.445	61.34
0.448	61.44
0.451	61.49
0.454	61.33
0.457	61.56
0.46	61.46
0.463	61.56
0.466	61.58
0.469	61.71
0.472	61.77
0.475	61.68
0.478	61.81
0.481	62
0.484	61.87
0.487	61.99
0.49	62.05
0.493	62.22
0.496	62.38
0.499	62.43
0.502	62.55
0.505	62.65
0.508	62.69
0.511	62.86
0.514	62.98
0.517	63.04
0.52	63.25
0.523	63.42
0.526	63.38
0.529	63.46
0.532	63.75
0.535	63.8
0.538	63.83
0.541	64.04
0.544	64.06
0.547	64.31
0.55	64.47
0.553	64.56
0.556	64.6
0.559	64.71
0.562	65.1
0.565	65.16
0.568	65.31
0.571	65.11
0.574	65.19
0.577	65.15
0.58	65.23
0.583	65.28
0.586	65.44
0.589	65.32
0.592	65.36
0.595	65.68
0.598	65.65
0.601	65.66
0.604	65.88
0.607	66.07
0.61	65.85
0.613	65.98
0.616	66.07
0.619	66.06
0.622	66.06
0.625	66.21
0.628	66.24
0.631	66.26
0.634	66.32
0.637	66.51
0.64	66.34
0.643	66.52
0.646	66.8
0.649	66.78
0.652	66.65
0.655	66.9
0.658	67.05
0.661	66.98
0.664	67.29
0.667	67.24
0.67	67.32
0.673	67.57
0.676	67.62
0.679	67.53
0.682	67.84
0.685	67.97
0.688	67.85
0.691	68.2
0.694	68.16
0.697	68.21
0.7	68.48
0.703	68.54
0.706	68.59
0.709	68.8
0.712	68.81
0.715	68.93
0.718	69.23
0.721	69.25
0.724	69.32
0.727	69.55
0.73	69.62
0.733	69.75
0.736	69.92
0.739	69.95
0.742	70.1
0.745	70.37
0.748	70.17
0.751	70.41
0.754	70.62
0.757	70.62
0.76	70.89
0.763	70.86
0.766	71.08
0.769	71.35
0.772	71.41
0.775	71.38
0.778	71.6
0.781	71.68
0.784	71.84
0.787	72.12
0.79	72.08
0.793	72.35
0.796	72.51
0.799	72.68
0.808	73.1
0.82	73.68
0.832	74.27
0.844	74.73
0.856	75.25
0.868	75.61
0.88	76.02
0.892	76.36
0.904	76.77
0.916	77.18
0.928	77.51
0.94	77.75
0.952	77.98
0.964	78.36
0.976	78.64
0.988	78.81
1	78.99
1.012	79.23
1.024	79.35
1.036	79.57
1.048	79.62
1.06	79.83
1.072	79.95
1.084	80.06
1.096	80.34
1.108	80.41
1.12	80.45
1.132	80.57
1.144	80.51
1.156	80.6
1.168	80.58
1.18	80.79
1.192	80.73
1.204	80.79
1.216	80.75
1.228	80.87
1.24	80.93
1.252	81.05
1.264	81.06
1.276	81.05
1.288	81.09
1.3	81.08
1.312	81.11
1.324	81.07
1.336	80.99
1.348	81.08
1.36	81.19
1.372	81.19
1.384	81.2
1.396	81.09
1.408	81.2
1.42	81.24
1.432	81.34
1.444	81.32
1.456	81.31
1.468	81.35
1.48	81.38
1.492	81.37
1.504	81.42
1.516	81.54
1.528	81.52
1.54	81.55
1.552	81.52
1.564	81.46
1.576	81.54
1.588	81.63
1.6	81.7
1.612	81.73
1.624	81.7
1.636	81.69
1.648	81.67
1.66	81.73
1.672	81.82
1.684	81.85
1.696	81.88
1.708	81.97
1.72	82.05
1.732	82
1.744	81.9
1.756	81.9
1.768	81.95
1.78	81.96
1.792	81.91
1.804	81.9
1.816	81.91
1.828	81.89
1.84	81.89
1.852	81.92
1.864	82.03
1.876	81.93
1.888	81.89
1.9	82
1.912	81.93
1.924	81.95
1.936	81.87
1.948	81.89
1.96	81.89
1.972	82.14
1.984	82.19
1.996	82.39
2.008	82.41
2.02	82.48
2.032	82.56
2.044	82.69
2.056	82.7
2.068	82.71
2.08	82.91
2.092	82.92
2.104	83.09
2.116	83.17
2.128	83.16
2.14	83.02
2.152	82.85
2.164	82.8
2.176	82.87
2.188	82.68
2.2	82.69
2.212	82.62
2.224	82.61
2.236	82.65
2.248	82.69
2.26	82.63
2.272	82.79
2.284	82.69
2.296	82.8
2.308	83
2.32	83.31
2.332	83.17
2.344	83.26
2.356	83.3
2.368	83.16
2.38	83.27
2.392	83.2
2.404	83.28
2.416	83.36
2.428	83.35
2.44	83.38
2.452	83.26
2.464	83.23
2.476	83.28
2.488	83.68
2.5	84.06
