Name: Witherite BaCO_3
Type: Mineral
Class: Carbonates
Particle Size: 0-45um
Sample No.: C-2A
Owner: JPL
Wavelength Range: VNIR-SWIR
Origin: United Kingdom, England
Measurement: Hemispherical reflectance
X Units: Wavelength (micrometers)
Y Units: Reflectance (percent)
wavelength	value
0.4	72.76
0.403	73.15
0.406	72.99
0.409	73.55
0.412	73.5
0.415	73.61
0.418	73.78
0.421	73.67
0.424	74.01
0.427	73.9
0.43	74.19
0.433	74.24
0.436	74.24
0.439	74.36
0.442	74.19
0.445	74.58
0.448	74.36
0.451	74.58
0.454	74.65
0.457	74.76
0.46	74.83
0.463	75
0.466	75.06
0.469	75.19
0.472	75.19
0.475	74.91
0.478	75.31
0.481	75.15
0.484	75.49
0.487	75.26
0.49	75.45
0.493	75.51
0.496	75.46
0.499	75.69
0.502	75.46
0.505	75.86
0.508	75.46
0.511	75.92
0.514	75.92
0.517	75.98
0.52	76.09
0.523	75.86
0.526	76.15
0.529	75.98
0.532	76.09
0.535	75.8
0.538	75.92
0.541	76.03
0.544	75.8
0.547	76.21
0.55	76.03
0.553	76.21
0.556	76.21
0.559	76.15
0.562	76.38
0.565	76.32
0.568	76.38
0.571	76.03
0.574	76.15
0.577	75.92
0.58	76.09
0.583	76.09
0.586	76.03
0.589	76.15
0.592	76.03
0.595	76.38
0.598	75.98
0.601	76.38
0.604	76.26
0.607	76.21
0.61	76.38
0.613	76.21
0.616	76.32
0.619	76.03
0.622	76.32
0.625	76.26
0.628	76.21
0.631	76.38
0.634	76.09
0.637	76.32
0.64	76.15
0.643	76.38
0.646	76.26
0.649	76.21
0.652	76.61
0.655	76.32
0.658	76.44
0.661	76.26
0.664	76.44
0.667	76.55
0.67	76.49
0.673	76.67
0.676	76.38
0.679	76.61
0.682	76.49
0.685	76.67
0.688	76.72
0.691	76.61
0.694	76.9
0.697	76.55
0.7	76.38
0.703	76.72
0.706	76.38
0.709	76.9
0.712	76.78
0.715	76.84
0.718	77.01
0.721	76.95
0.724	77.06
0.727	76.84
0.73	77.12
0.733	76.95
0.736	77.01
0.739	77.06
0.742	77.06
0.745	77.17
0.748	76.95
0.751	77.17
0.754	76.95
0.757	77.23
0.76	77.01
0.763	77.06
0.766	77.23
0.769	77.06
0.772	77.23
0.775	77.01
0.778	77.23
0.781	77.06
0.784	77.29
0.787	77.23
0.79	77.17
0.793	77.41
0.796	77.12
0.799	77.35
0.808	77.64
0.82	77.41
0.832	77.46
0.844	77.64
0.856	77.75
0.868	77.75
0.88	77.69
0.892	77.81
0.904	77.69
0.916	77.52
0.928	77.69
0.94	77.75
0.952	77.81
0.964	77.92
0.976	77.75
0.988	77.58
1	77.69
1.012	77.75
1.024	77.81
1.036	77.81
1.048	77.81
1.06	77.87
1.072	77.75
1.084	77.81
1.096	77.81
1.108	77.75
1.12	77.75
1.132	77.87
1.144	77.87
1.156	77.68
1.168	77.84
1.18	77.7
1.192	77.86
1.204	77.79
1.216	77.61
1.228	77.73
1.24	77.79
1.252	77.73
1.264	77.82
1.276	77.69
1.288	77.73
1.3	77.71
1.312	77.64
1.324	77.72
1.336	77.66
1.348	77.58
1.36	77.8
1.372	77.63
1.384	77.58
1.396	77.8
1.408	77.65
1.42	77.67
1.432	77.73
1.444	77.76
1.456	77.76
1.468	77.71
1.48	77.76
1.492	78.05
1.504	78.05
1.516	77.99
1.528	77.94
1.54	77.99
1.552	77.94
1.564	77.99
1.576	77.99
1.588	77.88
1.6	77.94
1.612	77.87
1.624	77.95
1.636	77.94
1.648	77.86
1.66	77.79
1.672	77.88
1.684	77.86
1.696	77.96
1.708	77.89
1.72	77.83
1.732	77.89
1.744	77.78
1.756	77.83
1.768	77.83
1.78	77.89
1.792	77.72
1.804	77.76
1.816	77.79
1.828	77.72
1.84	77.7
1.852	77.7
1.864	77.45
1.876	77.31
1.888	77.23
1.9	76.82
1.912	76.58
1.924	76.72
1.936	77.05
1.948	76.97
1.96	77.15
1.972	77.15
1.984	77.26
1.996	77.37
2.008	77.34
2.02	77.34
2.032	77.17
2.044	77.04
2.056	77.18
2.068	77.48
2.08	77.77
2.092	77.84
2.104	77.86
2.116	77.99
2.128	78.05
2.14	78.07
2.152	77.97
2.164	77.91
2.176	77.75
2.188	77.35
2.2	77.04
2.212	76.83
2.224	77.01
2.236	77.02
2.248	77.04
2.26	76.85
2.272	76.83
2.284	76.17
2.296	75.81
2.308	75.58
2.32	75.15
2.332	74.46
2.344	73.92
2.356	73.16
2.368	71.9
2.38	70.39
2.392	70.15
2.404	71.75
2.416	73.78
2.428	75.36
2.44	75.85
2.452	76
2.464	75.75
2.476	75.47
2.488	74.89
2.5	73.77
