Name: Hydroxyapophyllite KCa_4Si_8O_20(OH,F).8H_2O
Type: Mineral
Class: Silicates
Subclass: Phyllosilicates
Particle Size: 125-500um
Sample No.: PS-22A
Owner: JPL
Wavelength Range: VNIR-SWIR
Origin: India, Maharashtra, Poona
Measurement: Hemispherical reflectance
X Units: Wavelength (micrometers)
Y Units: Reflectance (percent)
wavelength	value
0.4	81.92
0.403	82.12
0.406	82.49
0.409	82.71
0.412	82.72
0.415	82.98
0.418	83.03
0.421	83.1
0.424	83.35
0.427	83.24
0.43	83.51
0.433	83.65
0.436	83.88
0.439	83.99
0.442	83.97
0.445	84.11
0.448	84.33
0.451	84.38
0.454	84.36
0.457	84.45
0.46	84.57
0.463	84.5
0.466	84.95
0.469	84.83
0.472	84.73
0.475	84.94
0.478	85.07
0.481	85.07
0.484	85.24
0.487	85.16
0.49	85.22
0.493	85.42
0.496	85.46
0.499	85.49
0.502	85.62
0.505	85.64
0.508	85.88
0.511	85.96
0.514	86
0.517	86.13
0.52	86.17
0.523	86.4
0.526	86.42
0.529	86.36
0.532	86.43
0.535	86.31
0.538	86.42
0.541	86.55
0.544	86.42
0.547	86.45
0.55	86.55
0.553	86.38
0.556	86.54
0.559	86.49
0.562	86.81
0.565	86.63
0.568	86.61
0.571	86.69
0.574	86.44
0.577	86.15
0.58	86.09
0.583	86.01
0.586	86.14
0.589	86
0.592	85.89
0.595	86
0.598	85.84
0.601	85.98
0.604	85.92
0.607	85.83
0.61	85.68
0.613	85.64
0.616	85.57
0.619	85.48
0.622	85.63
0.625	85.35
0.628	85.4
0.631	85.5
0.634	85.45
0.637	85.5
0.64	85.34
0.643	85.38
0.646	85.41
0.649	85.51
0.652	85.45
0.655	85.41
0.658	85.44
0.661	85.51
0.664	85.7
0.667	85.71
0.67	85.68
0.673	85.58
0.676	85.69
0.679	85.56
0.682	85.91
0.685	85.98
0.688	85.98
0.691	85.85
0.694	85.96
0.697	86.01
0.7	85.97
0.703	86
0.706	85.99
0.709	85.99
0.712	86.03
0.715	86.1
0.718	86.15
0.721	86.04
0.724	86.04
0.727	85.87
0.73	85.89
0.733	85.92
0.736	85.99
0.739	85.77
0.742	85.58
0.745	85.48
0.748	85.2
0.751	85.01
0.754	84.7
0.757	84.68
0.76	84.84
0.763	85.25
0.766	85.28
0.769	85.46
0.772	85.43
0.775	85.32
0.778	85.35
0.781	85.56
0.784	85.44
0.787	85.32
0.79	85.44
0.793	85.49
0.796	85.52
0.799	85.26
0.808	85.22
0.82	85.1
0.832	84.84
0.844	84.47
0.856	84.57
0.868	84.68
0.88	84.62
0.892	84.43
0.904	84.18
0.916	83.96
0.928	83.65
0.94	83.51
0.952	83.17
0.964	80.58
0.976	73.42
0.988	74.66
1	79.01
1.012	81.74
1.024	82.38
1.036	82.41
1.048	82.26
1.06	82.06
1.072	82.01
1.084	81.53
1.096	81.41
1.108	81.67
1.12	81.56
1.132	80.64
1.144	77.19
1.156	66.37
1.168	68.9
1.18	74.79
1.192	76.2
1.204	76.18
1.216	76.27
1.228	76.83
1.24	76.34
1.252	75.58
1.264	74.9
1.276	73.98
1.288	72.45
1.3	71.44
1.312	69.03
1.324	66.81
1.336	64.97
1.348	65.46
1.36	66.59
1.372	66.32
1.384	65.56
1.396	60.43
1.408	51.71
1.42	40.11
1.432	28.1
1.444	25.53
1.456	37.66
1.468	42.14
1.48	42.98
1.492	42.4
1.504	41.44
1.516	40.88
1.528	44.24
1.54	46.72
1.552	47.8
1.564	47.95
1.576	47.12
1.588	45.68
1.6	43.87
1.612	41.89
1.624	39.89
1.636	37.72
1.648	35.67
1.66	33.78
1.672	32.14
1.684	30.38
1.696	28.2
1.708	26.27
1.72	25.42
1.732	24.93
1.744	24.34
1.756	23.99
1.768	23.64
1.78	23.49
1.792	23.45
1.804	23.39
1.816	23.46
1.828	23.46
1.84	23.42
1.852	22.79
1.864	21.45
1.876	19.29
1.888	15.13
1.9	8.55
1.912	6.37
1.924	9.86
1.936	13.74
1.948	15.37
1.96	15.83
1.972	15.81
1.984	15.63
1.996	15.62
2.008	15.84
2.02	16.06
2.032	16.23
2.044	16.29
2.056	16.19
2.068	16.42
2.08	16.65
2.092	16.56
2.104	15.94
2.116	15.11
2.128	14.5
2.14	14.5
2.152	15.14
2.164	15.86
2.176	16.44
2.188	17
2.2	17.79
2.212	18.68
2.224	19.44
2.236	19.91
2.248	20.26
2.26	20.33
2.272	20.08
2.284	19.36
2.296	18.56
2.308	18.16
2.32	18.16
2.332	17.47
2.344	15.38
2.356	11.64
2.368	8.17
2.38	6.03
2.392	5.3
2.404	5.35
2.416	5.89
2.428	6.22
2.44	6.16
2.452	5.88
2.464	5.83
2.476	6.26
2.488	6.88
2.5	7.44
