Name: Tourmaline Na(Mg_3,Fe_3^2+)Al_6(BO_3)_3Si_6O_18(OH)_4
Type: Mineral
Class: Silicates
Subclass: Cyclosilicates
Particle Size: 0-45um
Sample No.: CS-1A
Owner: JPL
Origin: USA, New York, Overlook.
Measurement: Hemispherical reflectance
X Units: Wavelength (micrometers)
Y Units: Reflectance (percent)
wavelength	value
2.5	33.44
2.494	33.5424
2.488	33.3384
2.482	33.5044
2.476	33.5843
2.47	33.6248
2.464	33.7263
2.458	33.8891
2.452	33.8166
2.446	34.01
2.44	33.9921
2.434	34.031
2.428	34.2129
2.422	34.1621
2.416	34.1575
2.41	34.0568
2.404	33.9923
2.398	33.8855
2.392	33.6649
2.386	33.3447
2.38	32.9453
2.374	32.4494
2.368	32.1387
2.362	31.999
2.356	32.1758
2.35	32.3656
2.344	32.7537
2.338	33.011
2.332	33.186
2.326	33.2551
2.32	33.3647
2.314	33.3938
2.308	33.3763
2.302	33.355
2.296	33.3319
2.29	33.3205
2.284	33.4651
2.278	33.56
2.272	33.5512
2.266	33.3715
2.26	33.0757
2.254	32.5176
2.248	32.0536
2.242	31.8683
2.236	32.052
2.23	32.2915
2.224	32.1022
2.218	31.7774
2.212	31.2446
2.206	30.9317
2.2	31.4417
2.194	31.9099
2.188	32.1815
2.182	32.3912
2.176	32.3636
2.17	32.3535
2.164	32.3432
2.158	32.2705
2.152	32.273
2.146	32.1747
2.14	32.0812
2.134	31.9603
2.128	31.7911
2.122	31.5771
2.116	31.343
2.11	31.1269
2.104	30.895
2.098	30.6621
2.092	30.5403
2.086	30.4391
2.08	30.335
2.074	30.2092
2.068	30.0151
2.062	29.9177
2.056	29.84
2.05	29.6214
2.044	29.5072
2.038	29.3265
2.032	29.2016
2.026	29.0692
2.02	28.8265
2.014	28.7527
2.008	28.5328
2.002	28.3761
1.996	28.2119
1.99	27.9474
1.984	27.8159
1.978	27.5944
1.972	27.4005
1.966	27.2549
1.96	27.0013
1.954	26.8921
1.948	26.6649
1.942	26.464
1.936	26.316
1.93	26.0635
1.924	25.8972
1.918	25.723
1.912	25.55
1.906	25.4052
1.9	25.168
1.894	25.0392
1.888	24.8739
1.882	24.6305
1.876	24.4172
1.87	24.1742
1.864	24.0275
1.858	23.7843
1.852	23.5609
1.846	23.3571
1.84	23.1682
1.834	22.9171
1.828	22.6644
1.822	22.4767
1.816	22.2542
1.81	22.0305
1.804	21.8
1.798	21.5758
1.792	21.3921
1.786	21.1443
1.78	20.8247
1.774	20.6803
1.768	20.3849
1.762	20.2032
1.756	19.9656
1.75	19.715
1.744	19.4726
1.738	19.2757
1.732	19.0504
1.726	18.7536
1.72	18.581
1.714	18.4314
1.708	18.0856
1.702	17.8508
1.696	17.6114
1.69	17.4272
1.684	17.2424
1.678	17.0031
1.672	16.7414
1.666	16.5345
1.66	16.2373
1.654	16.0207
1.648	15.78
1.642	15.6247
1.636	15.3275
1.63	15.1127
1.624	14.9426
1.618	14.6756
1.612	14.4738
1.606	14.2554
1.6	14.05
1.594	13.7951
1.588	13.6407
1.582	13.3496
1.576	13.2343
1.57	13.0126
1.564	12.7796
1.558	12.5402
1.552	12.3784
1.546	12.1623
1.54	11.9686
1.534	11.7525
1.528	11.5799
1.522	11.3685
1.516	11.1219
1.51	11.0312
1.504	10.7858
1.498	10.6331
1.492	10.3953
1.486	10.205
1.48	10.0469
1.474	9.90513
1.468	9.74515
1.462	9.47245
1.456	9.33323
1.45	9.14164
1.444	8.9256
1.438	8.79573
1.432	8.56579
1.426	8.49039
1.42	8.4056
1.414	8.22875
1.408	8.08741
1.402	8.00406
1.396	7.84376
1.39	7.70295
1.384	7.62125
1.378	7.41444
1.372	7.19136
1.366	7.12335
1.36	7.04653
1.354	6.87438
1.348	6.77648
1.342	6.59144
1.336	6.52169
1.33	6.42681
1.324	6.28842
1.318	6.23131
1.312	6.12165
1.306	6.01877
1.3	5.93958
1.294	5.84146
1.288	5.72394
1.282	5.74272
1.276	5.63076
1.27	5.56493
1.264	5.46785
1.258	5.38196
1.252	5.34248
1.246	5.24528
1.24	5.22215
1.234	5.10016
1.228	5.0884
1.222	5.06695
1.216	4.99615
1.21	4.95474
1.204	4.9617
1.198	4.86777
1.192	4.89985
1.186	4.84664
1.18	4.79937
1.174	4.78512
1.168	4.70071
1.162	4.7379
1.156	4.70319
1.15	4.69777
1.144	4.76105
1.138	4.72044
1.132	4.75194
1.126	4.62747
1.12	4.79611
1.114	4.73762
1.108	4.75973
1.102	4.83376
1.096	4.79328
1.09	4.88994
1.084	4.93385
1.078	4.98521
1.072	4.99868
1.066	5.03031
1.06	5.18221
1.054	5.12861
1.048	5.26159
1.042	5.34543
1.036	5.40115
1.03	5.48561
1.024	5.41315
1.018	5.60771
1.012	5.66246
1.006	5.85047
1	5.85487
0.994	6.00744
0.988	6.05857
0.982	6.11269
0.976	6.30419
0.97	6.39733
0.964	6.5238
0.958	6.60825
0.952	6.69197
0.946	6.78489
0.94	6.89308
0.934	7.02538
0.928	7.01071
0.922	7.09174
0.916	7.14447
0.91	7.16962
0.904	7.17683
0.898	7.15046
0.892	7.00176
0.886	6.98087
0.88	7.00513
0.874	6.85217
0.868	6.76213
0.862	6.59545
0.856	6.76139
0.85	6.59991
0.844	6.40973
0.838	6.23244
0.832	6.05359
0.826	5.88402
0.82	5.71227
0.814	5.55007
0.808	5.39867
0.802	5.26205
0.796	5.13411
0.79	5.01779
0.784	4.91939
0.778	4.83179
0.772	4.75857
0.766	4.70105
0.76	4.65766
0.754	4.61802
0.748	4.58232
0.742	4.55517
0.736	4.5358
0.73	4.51883
0.724	4.50564
0.718	4.48924
0.712	4.47813
0.706	4.46945
0.7	4.47656
0.694	4.48879
0.688	4.51204
0.682	4.54501
0.676	4.59046
0.67	4.64654
0.664	4.71955
0.658	4.80147
0.652	4.90205
0.646	5.01119
0.64	5.12676
0.634	5.24942
0.628	5.3762
0.622	5.50003
0.616	5.61587
0.61	5.71885
0.604	5.80897
0.598	5.87787
0.592	5.92995
0.586	5.95914
0.58	5.96828
0.574	5.95983
0.568	5.93551
0.562	5.90623
0.556	5.88355
0.55	5.85071
0.544	5.81947
0.538	5.79367
0.532	5.77104
0.526	5.74452
0.52	5.7147
0.514	5.6791
0.508	5.65676
0.502	5.63373
0.496	5.60037
0.49	5.58598
0.484	5.59577
0.478	5.59063
0.472	5.59731
0.466	5.61044
0.46	5.61223
0.454	5.61358
0.448	5.60227
0.442	5.58745
0.436	5.57163
0.43	5.56483
0.424	5.59001
0.418	5.64156
0.412	5.7106
0.406	5.78257
0.4	5.86833
