Name: Microcline (Feldspar) (K,Na)AlSi_3O_8
Type: Mineral
Class: Silicates
Subclass: Tectosilicates
Particle Size: 45-125um
Sample No.: TS-17A
Owner: JPL
Origin: Unknown.
Measurement: Hemispherical reflectance
X Units: Wavelength (micrometers)
Y Units: Reflectance (percent)
wavelength	value
2.5	68.0683
2.494	67.9259
2.488	67.978
2.482	67.9868
2.476	68.1523
2.47	68.1533
2.464	68.1723
2.458	68.4048
2.452	68.2174
2.446	68.336
2.44	68.3039
2.434	68.5644
2.428	68.9439
2.422	69.5038
2.416	69.9857
2.41	70.7289
2.404	71.4316
2.398	71.7472
2.392	71.9582
2.386	72.3361
2.38	72.4439
2.374	72.5693
2.368	72.553
2.362	72.4575
2.356	72.1906
2.35	71.8609
2.344	71.7702
2.338	72.0344
2.332	72.5178
2.326	73.1928
2.32	73.9463
2.314	74.749
2.308	75.5151
2.302	76.0744
2.296	76.6434
2.29	77.0688
2.284	77.3093
2.278	77.5856
2.272	77.6115
2.266	77.5499
2.26	77.4336
2.254	77.2763
2.248	77.1647
2.242	77.0319
2.236	76.7849
2.23	76.4015
2.224	75.8099
2.218	74.6633
2.212	73.1433
2.206	71.5207
2.2	70.6735
2.194	70.7872
2.188	72.166
2.182	74.1545
2.176	76.1282
2.17	77.674
2.164	78.7252
2.158	79.6048
2.152	80.1546
2.146	80.6253
2.14	80.8627
2.134	80.9113
2.128	80.7128
2.122	80.5155
2.116	80.2099
2.11	80.0479
2.104	79.9548
2.098	79.8819
2.092	80.1827
2.086	80.2953
2.08	80.4282
2.074	80.5165
2.068	80.5142
2.062	80.5517
2.056	80.6136
2.05	80.5174
2.044	80.4841
2.038	80.3717
2.032	80.3483
2.026	80.0899
2.02	79.9367
2.014	79.6543
2.008	79.4602
2.002	79.1793
1.996	78.831
1.99	78.5498
1.984	78.2308
1.978	77.8528
1.972	77.5925
1.966	77.3515
1.96	77.1235
1.954	76.9054
1.948	76.7316
1.942	76.631
1.936	76.6132
1.93	76.5512
1.924	76.692
1.918	76.823
1.912	77.1618
1.906	77.8897
1.9	79.0608
1.894	80.0782
1.888	81.0858
1.882	81.7925
1.876	82.3322
1.87	82.4521
1.864	82.809
1.858	82.901
1.852	83.0249
1.846	82.9959
1.84	83.0776
1.834	83.0318
1.828	83.0702
1.822	83.1192
1.816	83.1539
1.81	83.1456
1.804	83.0959
1.798	83.1939
1.792	83.1904
1.786	83.1988
1.78	83.1077
1.774	83.1017
1.768	83.1468
1.762	83.1628
1.756	83.178
1.75	83.2282
1.744	83.247
1.738	83.3046
1.732	83.3755
1.726	83.3413
1.72	83.3349
1.714	83.3399
1.708	83.2572
1.702	83.2409
1.696	83.237
1.69	83.3492
1.684	83.2407
1.678	83.2214
1.672	83.2105
1.666	83.0992
1.66	83.1406
1.654	83.1052
1.648	83.2087
1.642	83.1942
1.636	83.0731
1.63	83.0834
1.624	83.0975
1.618	83.0845
1.612	83.0671
1.606	83.0213
1.6	82.9723
1.594	82.953
1.588	82.8815
1.582	82.8035
1.576	82.855
1.57	82.7526
1.564	82.6938
1.558	82.5853
1.552	82.5502
1.546	82.5225
1.54	82.4907
1.534	82.3872
1.528	82.2997
1.522	82.1578
1.516	82.1901
1.51	81.9971
1.504	81.9378
1.498	81.7599
1.492	81.7
1.486	81.6189
1.48	81.4742
1.474	81.2948
1.468	81.2441
1.462	81.0723
1.456	80.9584
1.45	80.9615
1.444	80.7957
1.438	80.6865
1.432	80.1943
1.426	79.3698
1.42	77.5205
1.414	75.0384
1.408	75.3357
1.402	76.6094
1.396	78.7775
1.39	80.6858
1.384	81.4014
1.378	81.5762
1.372	81.7146
1.366	81.6447
1.36	81.7455
1.354	81.7552
1.348	81.6425
1.342	81.5728
1.336	81.5164
1.33	81.4856
1.324	81.4964
1.318	81.3965
1.312	81.3577
1.306	81.3588
1.3	81.3555
1.294	81.299
1.288	81.3258
1.282	81.2292
1.276	81.2074
1.27	81.1763
1.264	81.0726
1.258	81.016
1.252	80.9609
1.246	80.8872
1.24	80.8435
1.234	80.8005
1.228	80.7923
1.222	80.6414
1.216	80.6574
1.21	80.54
1.204	80.437
1.198	80.3788
1.192	80.356
1.186	80.2926
1.18	80.1829
1.174	80.2188
1.168	80.1394
1.162	80.0202
1.156	80.0119
1.15	79.9636
1.144	79.9357
1.138	79.8606
1.132	79.8073
1.126	79.8159
1.12	79.7273
1.114	79.6154
1.108	79.5494
1.102	79.4972
1.096	79.469
1.09	79.4628
1.084	79.4129
1.078	79.2797
1.072	79.3554
1.066	79.2308
1.06	79.2241
1.054	79.1655
1.048	79.096
1.042	79.0132
1.036	78.9967
1.03	78.8669
1.024	78.8903
1.018	78.8142
1.012	78.7602
1.006	78.7807
1	78.5905
0.994	78.4923
0.988	78.4392
0.982	78.3464
0.976	78.3057
0.97	78.099
0.964	77.9916
0.958	77.8638
0.952	77.8903
0.946	77.9014
0.94	77.7109
0.934	77.6225
0.928	77.5634
0.922	77.4664
0.916	77.4223
0.91	77.2965
0.904	77.2777
0.898	77.1923
0.892	77.1131
0.886	77.1238
0.88	77.1041
0.874	76.9752
0.868	77.0457
0.862	76.9523
0.856	77.087
0.85	77.157
0.844	77.1373
0.838	77.0946
0.832	77.0643
0.826	77.0484
0.82	77.0334
0.814	77.0351
0.808	76.9841
0.802	76.9682
0.796	76.8898
0.79	76.8343
0.784	76.7661
0.778	76.7346
0.772	76.6037
0.766	76.527
0.76	76.4609
0.754	76.4211
0.748	76.3259
0.742	76.2656
0.736	76.1433
0.73	76.0941
0.724	75.9826
0.718	75.8697
0.712	75.7511
0.706	75.6236
0.7	75.5052
0.694	75.3858
0.688	75.2511
0.682	75.1185
0.676	75.0017
0.67	74.8725
0.664	74.7663
0.658	74.6162
0.652	74.5336
0.646	74.3993
0.64	74.2925
0.634	74.1629
0.628	74.0274
0.622	73.8525
0.616	73.687
0.61	73.4288
0.604	73.0934
0.598	72.691
0.592	72.1738
0.586	71.4577
0.58	70.5669
0.574	69.5283
0.568	68.3927
0.562	67.1798
0.556	65.9624
0.55	64.787
0.544	63.7214
0.538	62.7356
0.532	61.8011
0.526	60.9374
0.52	60.1039
0.514	59.2916
0.508	58.4971
0.502	57.6839
0.496	56.8489
0.49	56.0513
0.484	55.2908
0.478	54.6966
0.472	54.1534
0.466	53.5901
0.46	53.0187
0.454	52.3311
0.448	51.4645
0.442	50.3438
0.436	49.0782
0.43	47.7538
0.424	46.4734
0.418	45.3341
0.412	44.2425
0.406	43.1941
0.4	42.1096
