Name: Brucite Mg(OH)_2
Type: Mineral
Class: Hydroxides
Particle Size: 45-125um
Sample No.: OH-1A
Owner: JPL
Origin: USA, Nevada, Nye County, Gabbs.
Measurement: Hemispherical reflectance
X Units: Wavelength (micrometers)
Y Units: Reflectance (percent)
wavelength	value
2.5	7.64732
2.494	6.01519
2.488	5.13452
2.482	4.74675
2.476	4.48539
2.47	5.11795
2.464	5.80168
2.458	6.62712
2.452	7.5065
2.446	8.40376
2.44	9.62852
2.434	11.1002
2.428	12.9005
2.422	15.9986
2.416	20.3592
2.41	25.3008
2.404	29.6626
2.398	32.4447
2.392	33.9705
2.386	34.7657
2.38	35.1986
2.374	35.2099
2.368	34.9858
2.362	34.3883
2.356	33.3133
2.35	31.4959
2.344	28.9823
2.338	26.0743
2.332	23.3937
2.326	21.2794
2.32	20.3198
2.314	20.3948
2.308	21.5155
2.302	23.0833
2.296	24.9364
2.29	26.609
2.284	28.0496
2.278	28.9095
2.272	29.3418
2.266	29.6167
2.26	29.8773
2.254	30.065
2.248	30.5166
2.242	31.1134
2.236	31.8125
2.23	32.8435
2.224	33.9043
2.218	35.0011
2.212	36.0238
2.206	36.8837
2.2	37.6901
2.194	38.9002
2.188	40.676
2.182	42.8056
2.176	45.0522
2.17	46.9314
2.164	48.3024
2.158	48.9925
2.152	49.2228
2.146	48.9984
2.14	48.6754
2.134	48.2659
2.128	47.9952
2.122	47.9272
2.116	47.9424
2.11	48.07
2.104	48.1234
2.098	48.323
2.092	48.4886
2.086	48.6671
2.08	48.7465
2.074	48.931
2.068	49.034
2.062	49.2855
2.056	49.6278
2.05	50.1346
2.044	50.7191
2.038	51.2354
2.032	51.6365
2.026	52.0561
2.02	52.5346
2.014	53.178
2.008	54.0575
2.002	55.1745
1.996	56.0914
1.99	57.2046
1.984	58.0433
1.978	58.7942
1.972	59.192
1.966	59.4516
1.96	59.6002
1.954	59.7638
1.948	59.9715
1.942	60.0247
1.936	60.2438
1.93	60.2678
1.924	60.6027
1.918	61.2118
1.912	61.9783
1.906	62.872
1.9	64.1109
1.894	65.0819
1.888	65.7826
1.882	66.4282
1.876	67.1
1.87	67.763
1.864	68.4471
1.858	69.1436
1.852	69.8137
1.846	70.3828
1.84	70.9905
1.834	71.5184
1.828	72.0609
1.822	72.5154
1.816	73.0858
1.81	73.7368
1.804	74.1458
1.798	74.6632
1.792	75.0352
1.786	75.2841
1.78	75.5689
1.774	75.7687
1.768	76.1901
1.762	76.3972
1.756	76.7966
1.75	77.159
1.744	77.5387
1.738	77.8454
1.732	78.2367
1.726	78.5269
1.72	78.8873
1.714	79.2447
1.708	79.5882
1.702	79.8189
1.696	80.2425
1.69	80.651
1.684	80.8904
1.678	81.1507
1.672	81.5551
1.666	81.7243
1.66	82.0979
1.654	82.3749
1.648	82.5822
1.642	82.8179
1.636	83.102
1.63	83.2797
1.624	83.4256
1.618	83.5887
1.612	83.8207
1.606	84.0933
1.6	84.2492
1.594	84.329
1.588	84.4843
1.582	84.7143
1.576	84.6782
1.57	84.7352
1.564	84.827
1.558	84.8856
1.552	84.9415
1.546	84.9271
1.54	84.8683
1.534	84.8459
1.528	84.974
1.522	84.9418
1.516	84.9727
1.51	84.8038
1.504	84.6975
1.498	84.3643
1.492	83.6565
1.486	83.378
1.48	83.1082
1.474	83.2255
1.468	83.313
1.462	83.0136
1.456	82.4048
1.45	82.1416
1.444	80.7886
1.438	79.3924
1.432	79.559
1.426	78.9311
1.42	76.33
1.414	74.221
1.408	65.8547
1.402	41.597
1.396	31.48
1.39	60.3504
1.384	65.3004
1.378	70.2159
1.372	75.994
1.366	66.7365
1.36	66.6334
1.354	80.534
1.348	80.4442
1.342	79.8027
1.336	80.9641
1.33	81.747
1.324	81.525
1.318	81.3077
1.312	82.0901
1.306	81.08
1.3	78.8456
1.294	80.8055
1.288	82.6517
1.282	83.9211
1.276	84.6984
1.27	84.9875
1.264	84.979
1.258	84.5023
1.252	84.3706
1.246	84.2144
1.24	84.0371
1.234	84.4533
1.228	84.8185
1.222	84.9644
1.216	84.8885
1.21	84.9846
1.204	84.9898
1.198	84.8654
1.192	84.7297
1.186	84.721
1.18	84.5437
1.174	84.3762
1.168	84.3238
1.162	84.173
1.156	84.1479
1.15	84.1309
1.144	84.0178
1.138	83.9152
1.132	83.7105
1.126	83.5514
1.12	83.4142
1.114	83.2751
1.108	83.1341
1.102	82.9191
1.096	82.6864
1.09	82.6178
1.084	82.4648
1.078	82.3978
1.072	82.1964
1.066	82.1741
1.06	82.1749
1.054	82.0006
1.048	81.8621
1.042	81.9022
1.036	81.8245
1.03	81.9099
1.024	81.8419
1.018	81.823
1.012	81.8424
1.006	81.9259
1	81.7547
0.994	81.8606
0.988	81.8186
0.982	81.8048
0.976	81.7878
0.97	81.5077
0.964	80.5504
0.958	73.7319
0.952	74.3963
0.946	79.6536
0.94	81.141
0.934	81.5275
0.928	81.1749
0.922	80.9045
0.916	81.4183
0.91	81.4722
0.904	81.5083
0.898	81.4386
0.892	81.4696
0.886	81.5222
0.88	81.5269
0.874	81.5814
0.868	81.6358
0.862	81.8084
0.856	81.8562
0.85	82.121
0.844	82.3523
0.838	82.6028
0.832	82.8968
0.826	83.189
0.82	83.4869
0.814	83.8362
0.808	84.1673
0.802	84.5303
0.796	84.8058
0.79	85.1728
0.784	85.5001
0.778	85.8327
0.772	86.1447
0.766	86.492
0.76	86.7852
0.754	87.0553
0.748	87.344
0.742	87.4705
0.736	86.839
0.73	87.23
0.724	88.0147
0.718	88.2349
0.712	88.3375
0.706	88.3658
0.7	88.4245
0.694	88.3938
0.688	88.335
0.682	88.2916
0.676	88.1781
0.67	88.0807
0.664	88.0074
0.658	87.8621
0.652	87.7434
0.646	87.6322
0.64	87.4565
0.634	87.2916
0.628	87.1202
0.622	86.8784
0.616	86.6449
0.61	86.403
0.604	86.0666
0.598	85.7966
0.592	85.5467
0.586	85.2115
0.58	84.817
0.574	84.4348
0.568	84.0202
0.562	83.5926
0.556	83.1169
0.55	82.7394
0.544	82.3991
0.538	81.9577
0.532	81.4963
0.526	81.0126
0.52	80.4677
0.514	79.9644
0.508	79.7462
0.502	79.3437
0.496	78.8359
0.49	78.2
0.484	77.3782
0.478	76.57
0.472	75.7249
0.466	74.7803
0.46	73.4232
0.454	71.5747
0.448	69.3313
0.442	67.0812
0.436	64.9636
0.43	62.8749
0.424	61.0254
0.418	59.0207
0.412	56.3813
0.406	53.1478
0.4	49.45
