Name: Calcite CaCO_3
Type: Mineral
Class: Carbonates
Particle Size: 45-125um
Sample No.: C-3A
Owner: JPL
Wavelength Range: VNIR-SWIR
Origin: Italy
Description: Travertine
Measurement: Hemispherical reflectance
X Units: Wavelength (micrometers)
Y Units: Reflectance (percent)
wavelength	value
0.4	56.05
0.403	56.51
0.406	57.43
0.409	57.65
0.412	58.23
0.415	58.8
0.418	59.19
0.421	59.89
0.424	60.17
0.427	60.68
0.43	61.09
0.433	61.37
0.436	62.11
0.439	62.23
0.442	62.92
0.445	63.14
0.448	63.72
0.451	64.06
0.454	64.06
0.457	64.75
0.46	64.88
0.463	65.4
0.466	65.45
0.469	65.91
0.472	66.03
0.475	66.39
0.478	66.79
0.481	66.9
0.484	67.59
0.487	67.59
0.49	68.07
0.493	68.12
0.496	68.58
0.499	68.76
0.502	68.99
0.505	69.51
0.508	69.45
0.511	70.08
0.514	70.2
0.517	70.65
0.52	70.71
0.523	70.88
0.526	71.51
0.529	71.45
0.532	72.08
0.535	71.92
0.538	72.25
0.541	72.48
0.544	72.42
0.547	72.94
0.55	72.88
0.553	73.46
0.556	73.69
0.559	73.8
0.562	74.03
0.565	74.49
0.568	74.37
0.571	74.54
0.574	74.66
0.577	74.6
0.58	75.24
0.583	74.95
0.586	75.18
0.589	75.29
0.592	75.46
0.595	75.92
0.598	75.8
0.601	76.09
0.604	76.15
0.607	76.32
0.61	76.49
0.613	76.55
0.616	76.84
0.619	76.55
0.622	76.95
0.625	76.95
0.628	77.12
0.631	77.46
0.634	77.23
0.637	77.58
0.64	77.52
0.643	77.52
0.646	77.92
0.649	77.64
0.652	78.04
0.655	77.98
0.658	78.15
0.661	78.27
0.664	78.15
0.667	78.61
0.67	78.61
0.673	78.95
0.676	78.78
0.679	78.72
0.682	79.18
0.685	79.07
0.688	79.41
0.691	79.18
0.694	79.41
0.697	79.35
0.7	79.41
0.703	79.53
0.706	79.58
0.709	79.64
0.712	79.76
0.715	79.81
0.718	80.28
0.721	79.99
0.724	80.28
0.727	80.16
0.73	80.33
0.733	80.22
0.736	80.38
0.739	80.5
0.742	80.33
0.745	80.67
0.748	80.33
0.751	80.73
0.754	80.73
0.757	80.9
0.76	80.78
0.763	80.84
0.766	80.96
0.769	80.84
0.772	81.24
0.775	81.01
0.778	81.36
0.781	81.24
0.784	81.3
0.787	81.19
0.79	81.13
0.793	81.42
0.796	81.13
0.799	81.76
0.808	81.76
0.82	81.88
0.832	82.04
0.844	81.99
0.856	82.1
0.868	82.04
0.88	82.16
0.892	82.1
0.904	82.21
0.916	82.1
0.928	82.27
0.94	82.21
0.952	82.39
0.964	82.33
0.976	82.44
0.988	82.39
1	82.39
1.012	82.33
1.024	82.56
1.036	82.44
1.048	82.56
1.06	82.39
1.072	82.44
1.084	82.44
1.096	82.5
1.108	82.44
1.12	82.5
1.132	82.62
1.144	82.5
1.156	82.55
1.168	82.53
1.18	82.39
1.192	82.44
1.204	82.54
1.216	82.42
1.228	82.54
1.24	82.59
1.252	82.54
1.264	82.39
1.276	82.55
1.288	82.47
1.3	82.56
1.312	82.55
1.324	82.58
1.336	82.57
1.348	82.31
1.36	82.37
1.372	82.25
1.384	82.08
1.396	81.74
1.408	81.42
1.42	81.27
1.432	80.93
1.444	80.79
1.456	80.85
1.468	80.97
1.48	81.14
1.492	81.36
1.504	81.42
1.516	81.65
1.528	81.65
1.54	81.82
1.552	81.82
1.564	81.82
1.576	81.82
1.588	81.94
1.6	82.05
1.612	81.92
1.624	81.96
1.636	81.94
1.648	81.74
1.66	81.67
1.672	81.76
1.684	81.68
1.696	81.61
1.708	81.43
1.72	81.26
1.732	81.03
1.744	81.03
1.756	81.09
1.768	81.15
1.78	81.38
1.792	81.2
1.804	81.01
1.816	80.81
1.828	80.46
1.84	80.03
1.852	79.28
1.864	78.35
1.876	77.54
1.888	77.35
1.9	76.76
1.912	75.78
1.924	75.14
1.936	74.73
1.948	74.59
1.96	74.66
1.972	74.55
1.984	74.55
1.996	74.83
2.008	75.71
2.02	76.84
2.032	77.51
2.044	77.83
2.056	78.03
2.068	78.15
2.08	78.28
2.092	78.29
2.104	78.14
2.116	78.21
2.128	77.65
2.14	77.29
2.152	76.68
2.164	76.85
2.176	77.25
2.188	77.31
2.2	77.04
2.212	76.55
2.224	75.6
2.236	74.43
2.248	72.65
2.26	70.66
2.272	68.06
2.284	65.51
2.296	63.1
2.308	61.37
2.32	58.89
2.332	57.46
2.344	58.9
2.356	63.32
2.368	68.02
2.38	71.11
2.392	72.03
2.404	71.86
2.416	70.79
2.428	69.22
2.44	66.77
2.452	63.66
2.464	60.21
2.476	56.77
2.488	53.48
2.5	50.99
