Name: Dolomite CaMg(CO_3)_2
Type: Mineral
Class: Carbonates
Particle Size: 125-500um
Sample No.: C-5A
Owner: JPL
Origin: USA, Colorado.
Description: Red banded dolomite.
Measurement: Hemispherical reflectance
X Units: Wavelength (micrometers)
Y Units: Reflectance (percent)
wavelength	value
2.5	32.8336
2.494	33.8609
2.488	35.2005
2.482	36.6729
2.476	37.8817
2.47	38.5932
2.464	39.3094
2.458	39.9014
2.452	41.0142
2.446	42.5309
2.44	44.3796
2.434	46.1969
2.428	47.8001
2.422	49.4534
2.416	50.9039
2.41	51.9496
2.404	52.6863
2.398	53.3769
2.392	53.9201
2.386	54.5275
2.38	55.0485
2.374	55.5799
2.368	55.8235
2.362	55.807
2.356	55.1153
2.35	53.6668
2.344	51.3483
2.338	48.4837
2.332	45.8034
2.326	43.8858
2.32	43.0242
2.314	43.0134
2.308	43.6733
2.302	44.528
2.296	45.393
2.29	46.2831
2.284	47.0573
2.278	47.6252
2.272	48.1402
2.266	48.7852
2.26	49.8464
2.254	51.2085
2.248	52.5361
2.242	53.58
2.236	54.5279
2.23	55.1994
2.224	55.5412
2.218	56.0141
2.212	56.2852
2.206	56.6705
2.2	57.3423
2.194	57.7701
2.188	58.2417
2.182	58.6473
2.176	58.86
2.17	58.9971
2.164	59.1587
2.158	59.2246
2.152	59.09
2.146	59.0297
2.14	58.9858
2.134	58.9228
2.128	58.9916
2.122	58.9827
2.116	58.9373
2.11	58.8985
2.104	58.7813
2.098	58.717
2.092	58.7546
2.086	58.8566
2.08	58.8512
2.074	58.8053
2.068	58.8256
2.062	58.7935
2.056	58.7965
2.05	58.676
2.044	58.6049
2.038	58.5127
2.032	58.2969
2.026	58.1512
2.02	57.8907
2.014	57.5765
2.008	57.2575
2.002	56.8672
1.996	56.3284
1.99	55.7188
1.984	55.141
1.978	54.8086
1.972	54.6131
1.966	54.4572
1.96	54.4503
1.954	54.3128
1.948	54.1698
1.942	54.0266
1.936	54.0031
1.93	54.0804
1.924	54.2343
1.918	54.4438
1.912	54.764
1.906	55.3962
1.9	56.2782
1.894	57.2528
1.888	58.0769
1.882	58.5781
1.876	58.8611
1.87	58.6077
1.864	58.4388
1.858	58.5258
1.852	58.7014
1.846	58.8918
1.84	59.0206
1.834	59.1649
1.828	59.1866
1.822	59.1865
1.816	59.317
1.81	59.3867
1.804	59.4501
1.798	59.4133
1.792	59.1318
1.786	59.4054
1.78	59.3779
1.774	59.3489
1.768	59.355
1.762	59.2683
1.756	59.2227
1.75	59.234
1.744	59.144
1.738	59.1463
1.732	59.151
1.726	59.1156
1.72	59.1014
1.714	59.0509
1.708	59.0181
1.702	58.9744
1.696	59.0613
1.69	58.992
1.684	59.0618
1.678	58.9976
1.672	59.0011
1.666	58.9477
1.66	58.948
1.654	58.847
1.648	58.8762
1.642	58.8619
1.636	58.7599
1.63	58.744
1.624	58.74
1.618	58.7172
1.612	58.6967
1.606	58.6548
1.6	58.6147
1.594	58.5931
1.588	58.554
1.582	58.5966
1.576	58.4981
1.57	58.3835
1.564	58.3757
1.558	58.347
1.552	58.2672
1.546	58.1853
1.54	58.1324
1.534	58.0757
1.528	58.0088
1.522	58.0124
1.516	57.9561
1.51	57.8093
1.504	57.7292
1.498	57.6235
1.492	57.5166
1.486	57.4418
1.48	57.3966
1.474	57.3013
1.468	57.1902
1.462	57.0963
1.456	57.0726
1.45	57.0336
1.444	56.9887
1.438	56.9619
1.432	56.9607
1.426	56.8732
1.42	56.7456
1.414	56.6692
1.408	56.9543
1.402	57.1592
1.396	57.4685
1.39	57.6168
1.384	57.83
1.378	57.9147
1.372	57.9708
1.366	58.0324
1.36	57.9926
1.354	57.9692
1.348	58.0295
1.342	57.8953
1.336	58.0173
1.33	58.0124
1.324	58.042
1.318	58.05
1.312	58.0653
1.306	58.0299
1.3	58.0586
1.294	58.0623
1.288	58.0992
1.282	58.0909
1.276	58.1287
1.27	58.1371
1.264	58.1496
1.258	58.1535
1.252	58.2286
1.246	58.1904
1.24	58.2623
1.234	58.2915
1.228	58.2584
1.222	58.3273
1.216	58.3265
1.21	58.3227
1.204	58.3665
1.198	58.3792
1.192	58.4114
1.186	58.4551
1.18	58.4074
1.174	58.4447
1.168	58.4715
1.162	58.5256
1.156	58.4646
1.15	58.4862
1.144	58.4679
1.138	58.4857
1.132	58.4359
1.126	58.4207
1.12	58.3765
1.114	58.3338
1.108	58.2601
1.102	58.228
1.096	58.2365
1.09	58.2188
1.084	58.0913
1.078	57.9782
1.072	57.9056
1.066	57.9041
1.06	57.7596
1.054	57.6597
1.048	57.5429
1.042	57.4811
1.036	57.3326
1.03	57.0839
1.024	56.9079
1.018	56.7508
1.012	56.5747
1.006	56.3014
1	56.0846
0.994	55.7432
0.988	55.4297
0.982	55.0993
0.976	54.7272
0.97	54.2933
0.964	53.8784
0.958	53.4769
0.952	53.0215
0.946	52.5505
0.94	52.052
0.934	51.5928
0.928	51.2045
0.922	50.7499
0.916	50.2904
0.91	49.9534
0.904	49.5321
0.898	49.1902
0.892	48.8841
0.886	48.6181
0.88	48.4065
0.874	48.0936
0.868	47.919
0.862	47.6648
0.856	47.6617
0.85	47.5451
0.844	47.5427
0.838	47.4712
0.832	47.4475
0.826	47.4989
0.82	47.563
0.814	47.5761
0.808	47.6441
0.802	47.6763
0.796	47.6781
0.79	47.7484
0.784	47.7336
0.778	47.7104
0.772	47.6271
0.766	47.5381
0.76	47.4033
0.754	47.1781
0.748	46.903
0.742	46.5681
0.736	46.1608
0.73	45.6773
0.724	45.1222
0.718	44.5505
0.712	43.9261
0.706	43.2429
0.7	42.5566
0.694	41.8684
0.688	41.1716
0.682	40.4866
0.676	39.8135
0.67	39.1442
0.664	38.5165
0.658	37.881
0.652	37.2877
0.646	36.6965
0.64	36.1173
0.634	35.5674
0.628	34.9479
0.622	34.2842
0.616	33.5102
0.61	32.6102
0.604	31.5653
0.598	30.2447
0.592	28.6732
0.586	26.8401
0.58	24.8363
0.574	22.7993
0.568	20.8401
0.562	19.1176
0.556	17.6412
0.55	16.5586
0.544	15.7235
0.538	15.1112
0.532	14.6621
0.526	14.3374
0.52	14.0763
0.514	13.8686
0.508	13.6681
0.502	13.4702
0.496	13.2571
0.49	13.048
0.484	12.8681
0.478	12.7218
0.472	12.5883
0.466	12.4452
0.46	12.2895
0.454	12.1342
0.448	11.9591
0.442	11.7611
0.436	11.5746
0.43	11.3974
0.424	11.2448
0.418	11.131
0.412	11.0323
0.406	10.9524
0.4	10.879
