Name: Anhydrite CaSO_4
Type: Mineral
Class: Sulfates
Particle Size: 45-125um
Sample No.: SO-1A
Owner: JPL
Origin: Canada, Nova Scotia.
Measurement: Hemispherical reflectance
X Units: Wavelength (micrometers)
Y Units: Reflectance (percent)
wavelength	value
2.5	59.5979
2.494	59.6877
2.488	59.5124
2.482	59.5799
2.476	59.8165
2.47	60.1733
2.464	60.3056
2.458	60.6593
2.452	60.99
2.446	61.2991
2.44	61.7464
2.434	62.0247
2.428	62.4833
2.422	62.9362
2.416	63.5588
2.41	64.2012
2.404	64.8989
2.398	65.8542
2.392	66.7916
2.386	67.7095
2.38	68.5544
2.374	69.3797
2.368	70.1274
2.362	70.6957
2.356	71.1601
2.35	71.6615
2.344	72.2976
2.338	72.705
2.332	73.0522
2.326	73.4513
2.32	73.6527
2.314	73.7829
2.308	74.0865
2.302	74.0892
2.296	74.1396
2.29	74.1633
2.284	74.0156
2.278	73.8564
2.272	73.7974
2.266	73.6231
2.26	73.7645
2.254	73.836
2.248	73.8389
2.242	73.9449
2.236	73.7624
2.23	73.5263
2.224	73.2745
2.218	73.032
2.212	73.1292
2.206	73.4637
2.2	73.7998
2.194	73.8764
2.188	74.0294
2.182	74.1681
2.176	74.3326
2.17	74.5012
2.164	74.8269
2.158	75.0764
2.152	75.2995
2.146	75.3755
2.14	75.5088
2.134	75.5933
2.128	75.5745
2.122	75.3894
2.116	75.3657
2.11	75.1927
2.104	75.0187
2.098	75.0026
2.092	75.0491
2.086	75.1564
2.08	75.3087
2.074	75.1594
2.068	75.1866
2.062	75.1756
2.056	75.0692
2.05	74.9377
2.044	74.8361
2.038	74.5628
2.032	74.0898
2.026	73.6822
2.02	73.153
2.014	72.4603
2.008	71.5083
2.002	70.2124
1.996	68.3513
1.99	66.5978
1.984	65.3314
1.978	64.3526
1.972	63.7162
1.966	63.2028
1.96	62.3664
1.954	60.8174
1.948	59.6551
1.942	59.44
1.936	60.1394
1.93	61.5695
1.924	63.4769
1.918	65.4851
1.912	67.4842
1.906	69.4966
1.9	71.7239
1.894	73.6033
1.888	75.3481
1.882	76.9716
1.876	78.0055
1.87	78.9666
1.864	79.8172
1.858	80.1482
1.852	80.3971
1.846	80.6412
1.84	80.7655
1.834	80.7002
1.828	80.8167
1.822	80.7305
1.816	80.7684
1.81	80.7437
1.804	80.6749
1.798	80.5575
1.792	80.5724
1.786	80.3109
1.78	80.212
1.774	80.0812
1.768	80.0368
1.762	79.9924
1.756	79.8803
1.75	79.8565
1.744	79.9289
1.738	80.2299
1.732	80.5604
1.726	80.8322
1.72	81.1422
1.714	81.2493
1.708	81.5086
1.702	81.5952
1.696	81.6759
1.69	81.8345
1.684	81.7376
1.678	81.8329
1.672	81.7343
1.666	81.7449
1.66	81.6814
1.654	81.7234
1.648	81.6302
1.642	81.6075
1.636	81.6551
1.63	81.4059
1.624	81.4655
1.618	81.2912
1.612	81.2977
1.606	81.234
1.6	81.1004
1.594	81.0006
1.588	80.8547
1.582	80.6725
1.576	80.5339
1.57	80.3302
1.564	80.1361
1.558	79.9846
1.552	79.6716
1.546	79.2653
1.54	79.0067
1.534	78.9447
1.528	78.9196
1.522	78.9061
1.516	78.8053
1.51	78.5404
1.504	78.1309
1.498	77.5133
1.492	77.125
1.486	77.1063
1.48	77.111
1.474	76.8879
1.468	76.6701
1.462	76.3882
1.456	75.9942
1.45	75.2117
1.444	75.2578
1.438	76.1971
1.432	76.8817
1.426	77.245
1.42	77.8488
1.414	78.4418
1.408	79.0983
1.402	79.6141
1.396	80.2064
1.39	80.5357
1.384	80.6079
1.378	80.6573
1.372	80.7997
1.366	80.9208
1.36	80.8908
1.354	80.8767
1.348	81.0549
1.342	81.1135
1.336	80.971
1.33	80.9794
1.324	81.0828
1.318	81.0835
1.312	81.1803
1.306	81.021
1.3	81.0494
1.294	81.0415
1.288	81.0064
1.282	80.9883
1.276	80.8449
1.27	80.8198
1.264	80.7968
1.258	80.7554
1.252	80.638
1.246	80.6471
1.24	80.5641
1.234	80.4939
1.228	80.4603
1.222	80.419
1.216	80.3073
1.21	80.2102
1.204	80.1093
1.198	80.1155
1.192	80.0797
1.186	80.0178
1.18	80.0456
1.174	80.0342
1.168	80.0326
1.162	80.0419
1.156	80.0483
1.15	80.0643
1.144	80.0576
1.138	80.0379
1.132	80.0123
1.126	79.9318
1.12	79.9452
1.114	79.8794
1.108	79.8583
1.102	79.8184
1.096	79.8997
1.09	79.7425
1.084	79.6641
1.078	79.6508
1.072	79.6732
1.066	79.5719
1.06	79.474
1.054	79.4316
1.048	79.4642
1.042	79.4201
1.036	79.442
1.03	79.3766
1.024	79.4456
1.018	79.312
1.012	79.2081
1.006	79.2454
1	79.1618
0.994	79.0655
0.988	79.0835
0.982	79.0315
0.976	79.081
0.97	79.0953
0.964	79.0182
0.958	78.9635
0.952	78.9366
0.946	78.9341
0.94	78.9596
0.934	78.9128
0.928	78.8069
0.922	78.831
0.916	78.7423
0.91	78.734
0.904	78.7313
0.898	78.7126
0.892	78.6572
0.886	78.6068
0.88	78.5503
0.874	78.5141
0.868	78.4098
0.862	78.4316
0.856	78.1392
0.85	78.2362
0.844	78.1989
0.838	78.1245
0.832	78.0696
0.826	77.986
0.82	77.9122
0.814	77.8228
0.808	77.6922
0.802	77.6016
0.796	77.3774
0.79	77.2353
0.784	77.0131
0.778	76.8212
0.772	76.5881
0.766	76.2484
0.76	75.9309
0.754	75.5545
0.748	75.1472
0.742	74.7099
0.736	74.2527
0.73	73.7539
0.724	73.2376
0.718	72.8095
0.712	72.3794
0.706	71.9577
0.7	71.541
0.694	71.1041
0.688	70.6838
0.682	70.2867
0.676	69.9082
0.67	69.5228
0.664	69.1678
0.658	68.8056
0.652	68.4704
0.646	68.1436
0.64	67.8431
0.634	67.5186
0.628	67.2366
0.622	67.0083
0.616	66.8263
0.61	66.7139
0.604	66.5992
0.598	66.5682
0.592	66.5706
0.586	66.5354
0.58	66.5288
0.574	66.5054
0.568	66.4912
0.562	66.5097
0.556	66.5087
0.55	66.5074
0.544	66.4896
0.538	66.4839
0.532	66.4841
0.526	66.4549
0.52	66.4263
0.514	66.3937
0.508	66.2901
0.502	66.1857
0.496	66.056
0.49	65.8401
0.484	65.6283
0.478	65.4469
0.472	65.2359
0.466	65.0158
0.46	64.7158
0.454	64.4218
0.448	64.1062
0.442	63.7145
0.436	63.3587
0.43	62.9564
0.424	62.537
0.418	62.0933
0.412	61.6592
0.406	61.1856
0.4	60.7137
