Name: Zircon ZrSiO_4
Type: Mineral
Class: Silicates
Subclass: Nesosilicates
Particle Size: 125-500um
Sample No.: NS-9A
Owner: JPL
Origin: Malawi, Southern Malawi, Blantyre-Limbe District.
Measurement: Hemispherical reflectance
X Units: Wavelength (micrometers)
Y Units: Reflectance (percent)
wavelength	value
2.5	56.7039
2.494	56.979
2.488	57.2866
2.482	57.627
2.476	57.824
2.47	58.1062
2.464	58.3998
2.458	58.6303
2.452	58.7413
2.446	58.9775
2.44	59.2282
2.434	59.3921
2.428	59.5158
2.422	59.6581
2.416	59.6835
2.41	59.7104
2.404	59.765
2.398	59.7001
2.392	59.6516
2.386	59.6747
2.38	59.6719
2.374	59.8097
2.368	59.866
2.362	60.0621
2.356	60.1262
2.35	60.2661
2.344	60.3432
2.338	60.4527
2.332	60.4537
2.326	60.5196
2.32	60.4752
2.314	60.5126
2.308	60.5431
2.302	60.4452
2.296	60.4242
2.29	60.383
2.284	60.404
2.278	60.3286
2.272	60.2831
2.266	60.1147
2.26	60.0698
2.254	59.986
2.248	59.9517
2.242	60.034
2.236	60.1669
2.23	60.3213
2.224	60.3942
2.218	60.3308
2.212	60.1278
2.206	60.0006
2.2	60.2215
2.194	60.2245
2.188	60.2424
2.182	60.3711
2.176	60.4924
2.17	60.571
2.164	60.581
2.158	60.7337
2.152	60.8318
2.146	60.9103
2.14	60.8515
2.134	60.7202
2.128	60.4534
2.122	60.0297
2.116	59.6408
2.11	59.0986
2.104	58.4787
2.098	57.7722
2.092	57.211
2.086	56.6019
2.08	56.171
2.074	55.9079
2.068	56.0278
2.062	56.5954
2.056	57.3146
2.05	58.1196
2.044	58.9231
2.038	59.4621
2.032	59.9688
2.026	60.3603
2.02	60.6892
2.014	60.9623
2.008	61.1853
2.002	61.4131
1.996	61.5308
1.99	61.553
1.984	61.571
1.978	61.6599
1.972	61.6819
1.966	61.6739
1.96	61.7107
1.954	61.7119
1.948	61.7076
1.942	61.7053
1.936	61.7256
1.93	61.8803
1.924	61.939
1.918	62.1082
1.912	62.4274
1.906	62.6506
1.9	63.0194
1.894	63.3161
1.888	63.584
1.882	63.8602
1.876	63.995
1.87	64.1482
1.864	64.2255
1.858	64.2126
1.852	64.3226
1.846	64.2813
1.84	64.3013
1.834	64.3401
1.828	64.3253
1.822	64.2768
1.816	64.3288
1.81	64.2697
1.804	64.2849
1.798	64.2662
1.792	64.1388
1.786	64.1542
1.78	64.0789
1.774	63.9621
1.768	63.8527
1.762	63.7283
1.756	63.5331
1.75	63.3578
1.744	63.196
1.738	63.1192
1.732	63.0585
1.726	62.8535
1.72	62.6628
1.714	62.4931
1.708	62.2237
1.702	62.1127
1.696	62.0328
1.69	61.9719
1.684	61.7972
1.678	61.5897
1.672	61.1495
1.666	60.6745
1.66	60.6713
1.654	61.0541
1.648	61.4951
1.642	61.7605
1.636	61.9637
1.63	62.0109
1.624	62.0482
1.618	62.1031
1.612	62.0503
1.606	62.0828
1.6	61.9705
1.594	61.7802
1.588	61.6394
1.582	61.3505
1.576	60.9148
1.57	60.3138
1.564	59.7495
1.558	59.1792
1.552	58.2006
1.546	56.6331
1.54	55.3854
1.534	54.7886
1.528	54.3053
1.522	53.4095
1.516	51.2077
1.51	45.5617
1.504	41.3134
1.498	44.711
1.492	48.3577
1.486	50.5512
1.48	51.602
1.474	52.8272
1.468	54.1584
1.462	55.4834
1.456	56.3793
1.45	56.9773
1.444	57.5011
1.438	57.828
1.432	58.1814
1.426	58.3897
1.42	58.5325
1.414	58.4803
1.408	58.5043
1.402	58.5083
1.396	58.3554
1.39	58.2299
1.384	57.9006
1.378	57.5792
1.372	57.1456
1.366	56.4109
1.36	55.5475
1.354	54.7326
1.348	54.1162
1.342	53.9563
1.336	54.0305
1.33	53.8792
1.324	54.1688
1.318	54.5479
1.312	54.9342
1.306	55.2397
1.3	55.5013
1.294	55.7039
1.288	55.8899
1.282	56.1339
1.276	56.4123
1.27	56.5689
1.264	56.8163
1.258	57.0801
1.252	57.2955
1.246	57.3914
1.24	57.4968
1.234	57.5824
1.228	57.6491
1.222	57.6018
1.216	57.5249
1.21	57.3652
1.204	57.0954
1.198	56.6143
1.192	56.0283
1.186	55.2218
1.18	54.1842
1.174	52.8235
1.168	51.1255
1.162	49.4012
1.156	47.5038
1.15	45.4689
1.144	43.8039
1.138	42.2958
1.132	41.2491
1.126	38.955
1.12	35.8501
1.114	35.7735
1.108	37.9995
1.102	39.9017
1.096	41.0779
1.09	41.8913
1.084	42.6581
1.078	43.0961
1.072	43.121
1.066	42.913
1.06	42.5212
1.054	42.894
1.048	43.8446
1.042	44.7683
1.036	45.6191
1.03	46.3517
1.024	46.7808
1.018	46.9679
1.012	47.1425
1.006	47.6113
1	48.2188
0.994	48.4164
0.988	48.6001
0.982	48.2595
0.976	48.1749
0.97	48.8425
0.964	49.0201
0.958	49.3565
0.952	49.7851
0.946	49.9568
0.94	49.958
0.934	49.8339
0.928	49.5443
0.922	48.6674
0.916	47.7948
0.91	48.3761
0.904	48.6285
0.898	48.5099
0.892	48.4775
0.886	48.9157
0.88	49.2195
0.874	49.5537
0.868	49.7044
0.862	49.7634
0.856	50.0469
0.85	50.0615
0.844	50.1541
0.838	50.4796
0.832	50.8337
0.826	51.2102
0.82	51.5046
0.814	51.7638
0.808	51.9322
0.802	51.9703
0.796	52.2405
0.79	52.44
0.784	52.4381
0.778	52.3833
0.772	52.2503
0.766	52.0081
0.76	51.7827
0.754	51.4168
0.748	51.1173
0.742	50.7601
0.736	50.2699
0.73	49.7343
0.724	49.1055
0.718	48.3974
0.712	47.6263
0.706	46.7419
0.7	45.6566
0.694	43.8804
0.688	41.3166
0.682	41.7521
0.676	41.4217
0.67	39.9729
0.664	37.0576
0.658	33.4162
0.652	30.733
0.646	33.7405
0.64	34.3084
0.634	34.0012
0.628	33.3051
0.622	32.2416
0.616	31.3459
0.61	30.9908
0.604	30.4169
0.598	29.5939
0.592	28.3815
0.586	27.7417
0.58	27.6289
0.574	27.2574
0.568	26.7541
0.562	26.0346
0.556	25.5
0.55	24.9234
0.544	24.1827
0.538	23.4414
0.532	23.1646
0.526	22.7396
0.52	22.0937
0.514	21.4727
0.508	21.2138
0.502	21.1501
0.496	20.984
0.49	20.5713
0.484	19.9967
0.478	19.7562
0.472	19.6766
0.466	19.4901
0.46	19.2214
0.454	18.8636
0.448	18.3962
0.442	17.7743
0.436	16.9124
0.43	16.0737
0.424	15.4404
0.418	14.9354
0.412	14.5319
0.406	14.0584
0.4	13.4904
