Name: Magnesiochromite MgCr_2O_4
Type: Mineral
Class: Oxides
Particle Size: 0-45um
Sample No.: O-8A
Owner: JPL
Origin: Canada, Quebec, Coleraine Township.
Measurement: Hemispherical reflectance
X Units: Wavelength (micrometers)
Y Units: Reflectance (percent)
wavelength	value
2.5	4.92312
2.494	4.84886
2.488	5.06984
2.482	5.1023
2.476	4.88562
2.47	4.87216
2.464	4.97021
2.458	4.87951
2.452	4.95016
2.446	4.95549
2.44	4.91892
2.434	4.82353
2.428	4.82666
2.422	4.80216
2.416	4.88125
2.41	4.75617
2.404	4.85736
2.398	4.7937
2.392	4.74584
2.386	4.81891
2.38	4.78097
2.374	4.78705
2.368	4.74131
2.362	4.74936
2.356	4.71533
2.35	4.64573
2.344	4.71755
2.338	4.67628
2.332	4.65086
2.326	4.64081
2.32	4.65452
2.314	4.63409
2.308	4.60649
2.302	4.59951
2.296	4.61994
2.29	4.66333
2.284	4.58571
2.278	4.64051
2.272	4.62027
2.266	4.58375
2.26	4.54932
2.254	4.6077
2.248	4.6016
2.242	4.66931
2.236	4.64216
2.23	4.65561
2.224	4.58294
2.218	4.63579
2.212	4.7126
2.206	4.67265
2.2	4.60353
2.194	4.64513
2.188	4.62177
2.182	4.59086
2.176	4.63366
2.17	4.64503
2.164	4.69265
2.158	4.71518
2.152	4.67126
2.146	4.68359
2.14	4.68848
2.134	4.71337
2.128	4.66097
2.122	4.73833
2.116	4.70147
2.11	4.66758
2.104	4.68694
2.098	4.66885
2.092	4.66571
2.086	4.70061
2.08	4.72061
2.074	4.74205
2.068	4.77963
2.062	4.74198
2.056	4.80001
2.05	4.83257
2.044	4.85876
2.038	4.8844
2.032	4.8822
2.026	4.86758
2.02	4.89546
2.014	4.93975
2.008	4.97569
2.002	5.00246
1.996	4.94453
1.99	4.96737
1.984	5.0338
1.978	5.10522
1.972	5.163
1.966	5.17203
1.96	5.24779
1.954	5.30018
1.948	5.29758
1.942	5.31
1.936	5.37189
1.93	5.5376
1.924	5.52574
1.918	5.63183
1.912	5.71946
1.906	5.77445
1.9	5.89982
1.894	5.95834
1.888	6.05807
1.882	6.16618
1.876	6.2436
1.87	6.35791
1.864	6.51861
1.858	6.60474
1.852	6.77796
1.846	6.83482
1.84	6.99205
1.834	7.11407
1.828	7.25096
1.822	7.46687
1.816	7.52065
1.81	7.7747
1.804	7.90982
1.798	8.07955
1.792	8.25976
1.786	8.44839
1.78	8.62492
1.774	8.75564
1.768	8.9945
1.762	9.22353
1.756	9.40578
1.75	9.68928
1.744	9.90024
1.738	10.1519
1.732	10.4003
1.726	10.6566
1.72	10.896
1.714	11.1763
1.708	11.5019
1.702	11.7831
1.696	12.0806
1.69	12.354
1.684	12.6892
1.678	13.0818
1.672	13.3772
1.666	13.7157
1.66	14.1342
1.654	14.4763
1.648	14.926
1.642	15.3059
1.636	15.6419
1.63	16.1738
1.624	16.5372
1.618	16.9243
1.612	17.4001
1.606	17.807
1.6	18.3199
1.594	18.6957
1.588	19.1626
1.582	19.6445
1.576	20.0707
1.57	20.5191
1.564	20.9928
1.558	21.4313
1.552	21.892
1.546	22.2934
1.54	22.7056
1.534	23.0643
1.528	23.4549
1.522	23.7976
1.516	24.129
1.51	24.4158
1.504	24.7437
1.498	24.99
1.492	25.1884
1.486	25.3742
1.48	25.5227
1.474	25.6733
1.468	25.7819
1.462	25.8651
1.456	25.8819
1.45	25.8908
1.444	25.9016
1.438	25.8503
1.432	25.7569
1.426	25.6226
1.42	25.5122
1.414	25.38
1.408	25.2659
1.402	25.0977
1.396	24.901
1.39	24.7135
1.384	24.5191
1.378	24.3818
1.372	24.1622
1.366	23.9699
1.36	23.7745
1.354	23.671
1.348	23.4047
1.342	23.2219
1.336	23.0318
1.33	22.8027
1.324	22.6297
1.318	22.4158
1.312	22.2899
1.306	22.15
1.3	22.0123
1.294	21.7971
1.288	21.6376
1.282	21.5289
1.276	21.4533
1.27	21.2716
1.264	21.1981
1.258	21.1064
1.252	20.9733
1.246	20.8957
1.24	20.8816
1.234	20.8473
1.228	20.7237
1.222	20.7324
1.216	20.6612
1.21	20.6033
1.204	20.5335
1.198	20.5014
1.192	20.553
1.186	20.4777
1.18	20.4271
1.174	20.3985
1.168	20.5072
1.162	20.3891
1.156	20.3439
1.15	20.3537
1.144	20.3203
1.138	20.2482
1.132	20.1766
1.126	20.0976
1.12	20.0303
1.114	19.9341
1.108	19.8444
1.102	19.7443
1.096	19.6092
1.09	19.5612
1.084	19.3508
1.078	19.1925
1.072	19.0893
1.066	18.817
1.06	18.5788
1.054	18.3867
1.048	18.1347
1.042	17.8563
1.036	17.6231
1.03	17.2832
1.024	17.1473
1.018	16.8573
1.012	16.5435
1.006	16.2472
1	16.0254
0.994	15.7111
0.988	15.4235
0.982	15.1721
0.976	15.0331
0.97	14.8002
0.964	14.5739
0.958	14.3654
0.952	14.1941
0.946	13.989
0.94	13.9576
0.934	13.7743
0.928	13.6833
0.922	13.6427
0.916	13.6053
0.91	13.4531
0.904	13.3951
0.898	13.4546
0.892	13.3577
0.886	13.3588
0.88	13.3185
0.874	13.2896
0.868	13.2056
0.862	13.1596
0.856	13.3165
0.85	13.2541
0.844	13.2099
0.838	13.1412
0.832	13.0532
0.826	12.9879
0.82	12.8827
0.814	12.7874
0.808	12.6853
0.802	12.5675
0.796	12.4534
0.79	12.3391
0.784	12.2051
0.778	12.0994
0.772	11.9685
0.766	11.8432
0.76	11.7054
0.754	11.5661
0.748	11.4336
0.742	11.2676
0.736	11.1087
0.73	10.9201
0.724	10.7238
0.718	10.5331
0.712	10.339
0.706	10.1624
0.7	9.9885
0.694	9.85575
0.688	9.77769
0.682	9.7283
0.676	9.67245
0.67	9.59752
0.664	9.53131
0.658	9.5259
0.652	9.59742
0.646	9.67513
0.64	9.65517
0.634	9.51718
0.628	9.27351
0.622	8.96031
0.616	8.63599
0.61	8.31149
0.604	8.03566
0.598	7.81784
0.592	7.6462
0.586	7.51459
0.58	7.41905
0.574	7.34406
0.568	7.2919
0.562	7.25349
0.556	7.22163
0.55	7.18733
0.544	7.12829
0.538	7.02178
0.532	6.87069
0.526	6.68055
0.52	6.46798
0.514	6.27062
0.508	6.08814
0.502	5.93248
0.496	5.80184
0.49	5.69559
0.484	5.61665
0.478	5.5688
0.472	5.53412
0.466	5.50715
0.46	5.48586
0.454	5.44984
0.448	5.39924
0.442	5.3386
0.436	5.27759
0.43	5.21668
0.424	5.16618
0.418	5.1356
0.412	5.1166
0.406	5.1174
0.4	5.13381
