Name: Spodumene LiAlS_2O_6
Type: Mineral
Class: Silicates
Subclass: Inosilicates
Particle Size: 45-125um
Sample No.: IN-13A
Owner: JPL
Origin: Brazil, Minas Gerais.
Measurement: Hemispherical reflectance
X Units: Wavelength (micrometers)
Y Units: Reflectance (percent)
wavelength	value
2.5	77.0971
2.494	77.2721
2.488	77.1567
2.482	77.2035
2.476	77.4595
2.47	77.6372
2.464	77.9422
2.458	77.9613
2.452	77.9574
2.446	78.1176
2.44	78.2946
2.434	78.3213
2.428	78.44
2.422	78.7976
2.416	78.8037
2.41	78.9533
2.404	79.1146
2.398	79.2231
2.392	79.2286
2.386	79.2859
2.38	79.3746
2.374	79.5976
2.368	79.7532
2.362	79.8589
2.356	80.035
2.35	80.1495
2.344	80.2603
2.338	80.3655
2.332	80.4036
2.326	80.4106
2.32	80.4134
2.314	80.4569
2.308	80.5523
2.302	80.5681
2.296	80.6518
2.29	80.7185
2.284	80.7233
2.278	80.7774
2.272	80.9662
2.266	80.8676
2.26	80.8698
2.254	80.9319
2.248	80.8945
2.242	80.9453
2.236	80.8079
2.23	80.8485
2.224	80.7769
2.218	80.5009
2.212	80.0621
2.206	79.7853
2.2	80.1236
2.194	80.5277
2.188	80.849
2.182	81.0573
2.176	81.2608
2.17	81.3879
2.164	81.6787
2.158	81.9027
2.152	82.244
2.146	82.5275
2.14	82.7387
2.134	82.7754
2.128	82.6395
2.122	82.4962
2.116	82.3076
2.11	82.037
2.104	81.7798
2.098	81.6344
2.092	81.7342
2.086	81.8913
2.08	81.9038
2.074	82.0078
2.068	81.9983
2.062	82.176
2.056	82.2277
2.05	82.3215
2.044	82.3429
2.038	82.3882
2.032	82.4473
2.026	82.4599
2.02	82.4414
2.014	82.3801
2.008	82.3508
2.002	82.3184
1.996	82.2715
1.99	82.1243
1.984	82.0534
1.978	81.9149
1.972	81.8819
1.966	81.7664
1.96	81.7868
1.954	81.5972
1.948	81.5647
1.942	81.5335
1.936	81.6
1.93	81.4375
1.924	81.4292
1.918	81.4681
1.912	81.4463
1.906	81.5488
1.9	81.9974
1.894	82.4106
1.888	82.8264
1.882	83.0204
1.876	83.1242
1.87	83.1746
1.864	83.3204
1.858	83.3606
1.852	83.3417
1.846	83.376
1.84	83.3745
1.834	83.4138
1.828	83.3553
1.822	83.4567
1.816	83.4376
1.81	83.4968
1.804	83.4464
1.798	83.5055
1.792	83.4626
1.786	83.4173
1.78	83.4154
1.774	83.456
1.768	83.3757
1.762	83.4174
1.756	83.3863
1.75	83.4109
1.744	83.5483
1.738	83.5543
1.732	83.4851
1.726	83.5994
1.72	83.5224
1.714	83.6081
1.708	83.5584
1.702	83.5103
1.696	83.4993
1.69	83.5508
1.684	83.5836
1.678	83.4641
1.672	83.5682
1.666	83.538
1.66	83.4807
1.654	83.5197
1.648	83.5706
1.642	83.5698
1.636	83.5384
1.63	83.5726
1.624	83.519
1.618	83.5051
1.612	83.4502
1.606	83.5767
1.6	83.5641
1.594	83.5323
1.588	83.5439
1.582	83.4693
1.576	83.4998
1.57	83.4775
1.564	83.5174
1.558	83.4606
1.552	83.4345
1.546	83.4734
1.54	83.3817
1.534	83.4324
1.528	83.401
1.522	83.4154
1.516	83.344
1.51	83.3135
1.504	83.3389
1.498	83.2336
1.492	83.2185
1.486	83.2311
1.48	83.1652
1.474	83.1997
1.468	83.1517
1.462	83.1717
1.456	83.0368
1.45	83.1142
1.444	83.0391
1.438	83.0108
1.432	82.9432
1.426	82.7959
1.42	82.5499
1.414	81.8609
1.408	82.3773
1.402	82.4295
1.396	82.5678
1.39	82.5777
1.384	82.6919
1.378	83.0148
1.372	83.1683
1.366	83.177
1.36	83.1228
1.354	83.1964
1.348	83.2052
1.342	83.2853
1.336	83.262
1.33	83.3149
1.324	83.2359
1.318	83.2128
1.312	83.2747
1.306	83.2275
1.3	83.2929
1.294	83.2733
1.288	83.351
1.282	83.2389
1.276	83.2492
1.27	83.2818
1.264	83.236
1.258	83.2174
1.252	83.1542
1.246	83.2164
1.24	83.1613
1.234	83.1782
1.228	83.1197
1.222	83.1054
1.216	83.1777
1.21	83.1764
1.204	83.0918
1.198	83.0962
1.192	83.0921
1.186	83.1236
1.18	83.015
1.174	83.0911
1.168	83.0327
1.162	82.9912
1.156	83.012
1.15	83.0548
1.144	83.0293
1.138	83.0775
1.132	83.0092
1.126	83.0005
1.12	82.9523
1.114	82.9373
1.108	82.9521
1.102	82.884
1.096	82.9181
1.09	82.8589
1.084	82.8389
1.078	82.9823
1.072	82.916
1.066	82.7683
1.06	82.79
1.054	82.7977
1.048	82.756
1.042	82.7504
1.036	82.8163
1.03	82.7812
1.024	82.7356
1.018	82.6971
1.012	82.6417
1.006	82.6125
1	82.5635
0.994	82.5783
0.988	82.5111
0.982	82.4583
0.976	82.5366
0.97	82.4166
0.964	82.3637
0.958	82.3885
0.952	82.4061
0.946	82.311
0.94	82.3084
0.934	82.2366
0.928	82.195
0.922	82.1931
0.916	82.1091
0.91	82.1458
0.904	82.0343
0.898	82.0728
0.892	81.9182
0.886	81.917
0.88	81.8451
0.874	81.8284
0.868	81.8334
0.862	81.7258
0.856	81.8579
0.85	81.8259
0.844	81.7974
0.838	81.7412
0.832	81.7755
0.826	81.6698
0.82	81.6582
0.814	81.6573
0.808	81.6017
0.802	81.5847
0.796	81.4823
0.79	81.4507
0.784	81.3738
0.778	81.294
0.772	81.2434
0.766	81.2187
0.76	81.1635
0.754	81.1322
0.748	81.0823
0.742	81.0345
0.736	80.9571
0.73	80.9013
0.724	80.8519
0.718	80.8064
0.712	80.7213
0.706	80.6401
0.7	80.5412
0.694	80.4789
0.688	80.3579
0.682	80.2511
0.676	80.1465
0.67	80.0305
0.664	79.97
0.658	79.8658
0.652	79.8018
0.646	79.6852
0.64	79.6176
0.634	79.5056
0.628	79.3969
0.622	79.2716
0.616	79.1259
0.61	78.9573
0.604	78.7722
0.598	78.5745
0.592	78.355
0.586	77.9949
0.58	77.6135
0.574	77.1486
0.568	76.6783
0.562	76.1681
0.556	75.6362
0.55	75.1811
0.544	74.7964
0.538	74.5025
0.532	74.2967
0.526	74.1773
0.52	74.1622
0.514	74.1632
0.508	74.1736
0.502	74.1952
0.496	74.1498
0.49	74.0698
0.484	73.9303
0.478	73.8192
0.472	73.7082
0.466	73.5432
0.46	73.3394
0.454	73.0699
0.448	72.7872
0.442	72.4905
0.436	72.1329
0.43	71.7986
0.424	71.4593
0.418	71.0314
0.412	70.6268
0.406	70.2285
0.4	69.7294
