Name: Amblygonite (Li,Na)Al(PO_4)(F,OH)
Type: Mineral
Class: Phosphates
Particle Size: 125-500um
Sample No.: P-3A
Owner: JPL
Origin: USA, California, San Diego County, Pala.
Measurement: Hemispherical reflectance
X Units: Wavelength (micrometers)
Y Units: Reflectance (percent)
wavelength	value
2.5	20.7262
2.494	21.5809
2.488	22.4895
2.482	23.3357
2.476	24.6174
2.47	25.9796
2.464	27.5546
2.458	29.1519
2.452	30.7658
2.446	32.2018
2.44	33.4497
2.434	34.2355
2.428	34.7688
2.422	34.7413
2.416	34.3058
2.41	33.2953
2.404	31.1489
2.398	27.8218
2.392	23.3733
2.386	18.8345
2.38	15.6035
2.374	14.5778
2.368	16.0969
2.362	20.157
2.356	26.2128
2.35	32.5629
2.344	37.8798
2.338	41.2395
2.332	42.947
2.326	43.5724
2.32	43.5701
2.314	43.2473
2.308	42.454
2.302	41.4668
2.296	40.2753
2.29	39.0745
2.284	37.9364
2.278	36.8937
2.272	35.9903
2.266	35.1801
2.26	34.3368
2.254	33.2947
2.248	31.8868
2.242	30.3951
2.236	28.8662
2.23	27.1339
2.224	25.4307
2.218	23.4939
2.212	21.4294
2.206	18.9281
2.2	16.6188
2.194	14.5937
2.188	12.9356
2.182	11.6182
2.176	11.3673
2.17	13.1544
2.164	18.3056
2.158	25.9821
2.152	33.4532
2.146	38.5753
2.14	41.4246
2.134	42.8411
2.128	43.7652
2.122	44.6698
2.116	45.6456
2.11	46.6534
2.104	47.5998
2.098	48.451
2.092	49.0136
2.086	49.0817
2.08	48.7092
2.074	48.2539
2.068	47.9259
2.062	47.9384
2.056	48.2336
2.05	48.8296
2.044	49.7982
2.038	50.7436
2.032	51.5813
2.026	51.8813
2.02	51.261
2.014	49.3506
2.008	45.4787
2.002	39.6671
1.996	35.8054
1.99	37.283
1.984	42.6311
1.978	48.3718
1.972	52.2693
1.966	54.4729
1.96	55.5936
1.954	56.2465
1.948	56.5428
1.942	56.6497
1.936	56.6481
1.93	56.7709
1.924	56.6147
1.918	56.4226
1.912	56.5122
1.906	56.9043
1.9	57.5087
1.894	58.0344
1.888	58.3773
1.882	58.5418
1.876	58.5967
1.87	58.3314
1.864	57.1252
1.858	55.4174
1.852	54.0546
1.846	54.1018
1.84	56.7974
1.834	61.3682
1.828	64.1643
1.822	65.2804
1.816	65.7163
1.81	65.8019
1.804	65.7556
1.798	65.4963
1.792	65.0189
1.786	64.4602
1.78	64.1038
1.774	63.7782
1.768	63.7162
1.762	63.9166
1.756	64.1446
1.75	64.382
1.744	64.4371
1.738	64.4143
1.732	64.7019
1.726	65.3642
1.72	66.2289
1.714	67.0937
1.708	67.6572
1.702	67.8181
1.696	67.9691
1.69	67.9926
1.684	68.0638
1.678	68.0864
1.672	68.0945
1.666	67.9231
1.66	67.7428
1.654	67.6725
1.648	67.5337
1.642	67.4609
1.636	67.3661
1.63	67.1726
1.624	66.8448
1.618	66.4673
1.612	65.9637
1.606	65.6289
1.6	65.4049
1.594	65.0572
1.588	64.5367
1.582	63.8126
1.576	62.8713
1.57	61.597
1.564	60.2548
1.558	58.8522
1.552	57.6583
1.546	56.9047
1.54	56.6106
1.534	57.332
1.528	58.8167
1.522	60.4513
1.516	62.2093
1.51	63.9505
1.504	65.4542
1.498	66.6044
1.492	67.3829
1.486	67.7801
1.48	68.3648
1.474	69.2278
1.468	70.265
1.462	70.9941
1.456	71.4381
1.45	70.8216
1.444	70.8662
1.438	71.7673
1.432	70.5059
1.426	70.0408
1.42	68.8412
1.414	67.7613
1.408	73.1425
1.402	74.6118
1.396	74.9257
1.39	75.9993
1.384	76.8876
1.378	77.7187
1.372	77.8654
1.366	77.7756
1.36	77.4717
1.354	77.5136
1.348	77.9759
1.342	78.5238
1.336	78.9277
1.33	79.0443
1.324	79.1854
1.318	79.2273
1.312	79.3543
1.306	79.2041
1.3	79.0508
1.294	78.8969
1.288	79.026
1.282	79.5424
1.276	79.9417
1.27	80.102
1.264	80.1751
1.258	80.2842
1.252	80.3475
1.246	80.4122
1.24	80.5587
1.234	80.6705
1.228	80.6853
1.222	80.6956
1.216	80.7866
1.21	80.811
1.204	80.8597
1.198	80.9234
1.192	80.9034
1.186	80.8838
1.18	80.9077
1.174	80.9007
1.168	80.9316
1.162	80.9931
1.156	81.0281
1.15	81.0383
1.144	80.9947
1.138	81.0139
1.132	81.0195
1.126	81.0067
1.12	81.0643
1.114	80.9923
1.108	81.0392
1.102	80.9995
1.096	81.1293
1.09	80.9821
1.084	81.0364
1.078	80.9174
1.072	80.9806
1.066	80.9504
1.06	80.9662
1.054	80.9946
1.048	81.0048
1.042	81.0036
1.036	80.9018
1.03	80.9214
1.024	80.9157
1.018	80.8976
1.012	80.8895
1.006	80.8835
1	80.8843
0.994	80.9269
0.988	80.7942
0.982	80.7968
0.976	80.7296
0.97	80.6401
0.964	80.657
0.958	80.7686
0.952	80.826
0.946	80.8264
0.94	80.8323
0.934	80.8496
0.928	80.8391
0.922	80.8343
0.916	80.8397
0.91	80.8363
0.904	80.7748
0.898	80.7772
0.892	80.6987
0.886	80.746
0.88	80.6602
0.874	80.6619
0.868	80.6037
0.862	80.6726
0.856	80.5938
0.85	80.5046
0.844	80.4547
0.838	80.4427
0.832	80.4498
0.826	80.3628
0.82	80.4255
0.814	80.3724
0.808	80.3456
0.802	80.3038
0.796	80.2195
0.79	80.1927
0.784	80.2097
0.778	80.211
0.772	80.1491
0.766	80.0897
0.76	80.1343
0.754	80.0974
0.748	80.0935
0.742	80.1295
0.736	80.1158
0.73	80.1106
0.724	80.1155
0.718	80.1369
0.712	80.1092
0.706	80.1282
0.7	80.1091
0.694	80.1073
0.688	80.0895
0.682	80.0563
0.676	80.0106
0.67	79.9437
0.664	79.9065
0.658	79.8179
0.652	79.7541
0.646	79.6425
0.64	79.5359
0.634	79.4182
0.628	79.2833
0.622	79.1316
0.616	78.9862
0.61	78.8496
0.604	78.6965
0.598	78.572
0.592	78.4838
0.586	78.3574
0.58	78.2349
0.574	78.1458
0.568	78.0407
0.562	77.9556
0.556	77.8615
0.55	77.7795
0.544	77.6767
0.538	77.5795
0.532	77.4904
0.526	77.3917
0.52	77.2783
0.514	77.1753
0.508	77.0549
0.502	76.8929
0.496	76.7581
0.49	76.5514
0.484	76.357
0.478	76.1736
0.472	75.9512
0.466	75.6895
0.46	75.3912
0.454	75.0862
0.448	74.7055
0.442	74.2854
0.436	73.8542
0.43	73.4398
0.424	72.9945
0.418	72.4971
0.412	71.9277
0.406	71.3117
0.4	70.6274
