Name: Epidote Ca_2(Al,Fe^3+)_3O.SiO_4.Si_2O_7.OH
Type: Mineral
Class: Silicates
Subclass: Sorosilicate
Particle Size: 125-500um
Sample No.: SS-1C
Owner: JPL
Origin: USA, Colorado.
Measurement: Hemispherical reflectance
X Units: Wavelength (micrometers)
Y Units: Reflectance (percent)
wavelength	value
2.5	43.3371
2.494	43.7918
2.488	44.6777
2.482	45.3372
2.476	46.0226
2.47	46.5881
2.464	47.1698
2.458	47.8083
2.452	48.4664
2.446	48.9907
2.44	49.494
2.434	49.9508
2.428	49.9804
2.422	49.9953
2.416	49.6839
2.41	49.0815
2.404	48.1722
2.398	46.8922
2.392	45.3463
2.386	43.4041
2.38	41.1619
2.374	38.1517
2.368	34.178
2.362	29.446
2.356	24.3305
2.35	20.0801
2.344	17.3602
2.338	16.2142
2.332	16.4833
2.326	17.7952
2.32	19.8837
2.314	22.5721
2.308	25.613
2.302	28.7001
2.296	31.6771
2.29	34.3679
2.284	36.798
2.278	38.6201
2.272	39.1775
2.266	38.3533
2.26	36.4737
2.254	35.3536
2.248	36.8485
2.242	41.0918
2.236	46.1645
2.23	50.3767
2.224	53.0934
2.218	55.0006
2.212	56.306
2.206	57.2123
2.2	57.8294
2.194	58.4376
2.188	59.0476
2.182	59.6701
2.176	60.3201
2.17	60.9578
2.164	61.4225
2.158	61.7897
2.152	62.0125
2.146	62.1363
2.14	62.1625
2.134	61.9797
2.128	61.8798
2.122	61.7224
2.116	61.5264
2.11	61.4483
2.104	61.4119
2.098	61.3768
2.092	61.3671
2.086	61.2918
2.08	61.2295
2.074	61.1544
2.068	61.0488
2.062	60.8986
2.056	60.7671
2.05	60.5831
2.044	60.431
2.038	60.1774
2.032	59.8563
2.026	59.4513
2.02	59.1279
2.014	58.9634
2.008	58.5811
2.002	58.2283
1.996	57.676
1.99	57.2506
1.984	56.8482
1.978	56.2951
1.972	55.6032
1.966	54.7905
1.96	53.9704
1.954	53.219
1.948	52.7326
1.942	53.0214
1.936	53.2425
1.93	53.1766
1.924	52.9433
1.918	52.5465
1.912	52.2291
1.906	52.5768
1.9	53.5799
1.894	54.7498
1.888	55.3833
1.882	55.7443
1.876	56.0781
1.87	56.6508
1.864	56.7288
1.858	56.6114
1.852	56.3231
1.846	55.4951
1.84	54.7299
1.834	53.8318
1.828	53.7106
1.822	54.4699
1.816	55.3761
1.81	55.6574
1.804	55.7512
1.798	55.6324
1.792	55.4875
1.786	55.3485
1.78	55.2436
1.774	54.9802
1.768	54.8226
1.762	54.6673
1.756	54.5253
1.75	54.4073
1.744	54.307
1.738	54.1325
1.732	53.924
1.726	53.8565
1.72	53.6935
1.714	53.4843
1.708	53.3127
1.702	53.1023
1.696	53.0025
1.69	52.7159
1.684	52.5728
1.678	52.4577
1.672	52.3407
1.666	52.3237
1.66	52.1466
1.654	52.0798
1.648	51.8713
1.642	51.6753
1.636	51.4984
1.63	51.3801
1.624	51.1965
1.618	51.0533
1.612	50.8622
1.606	50.6164
1.6	50.2429
1.594	49.8948
1.588	49.4666
1.582	48.9725
1.576	48.4768
1.57	48.0646
1.564	47.3872
1.558	46.5537
1.552	45.8752
1.546	45.6885
1.54	46.0492
1.534	46.593
1.528	47.156
1.522	47.6871
1.516	48.3099
1.51	48.7903
1.504	49.4058
1.498	49.6924
1.492	50.0393
1.486	50.1972
1.48	50.3286
1.474	50.5032
1.468	50.5454
1.462	50.5699
1.456	50.6164
1.45	50.5465
1.444	50.3868
1.438	50.3363
1.432	50.2517
1.426	50.1094
1.42	50.0431
1.414	49.8667
1.408	49.8096
1.402	49.675
1.396	49.2621
1.39	49.9059
1.384	50.6826
1.378	50.7154
1.372	50.5605
1.366	50.4081
1.36	50.2822
1.354	50.1042
1.348	49.8432
1.342	49.6974
1.336	49.4642
1.33	49.3231
1.324	49.1636
1.318	48.9806
1.312	48.8569
1.306	48.7212
1.3	48.5872
1.294	48.375
1.288	48.2026
1.282	47.9336
1.276	47.6684
1.27	47.329
1.264	47.0374
1.258	46.6689
1.252	46.2282
1.246	45.7693
1.24	45.2329
1.234	44.6974
1.228	44.1537
1.222	43.5291
1.216	42.9184
1.21	42.1662
1.204	41.3655
1.198	40.7669
1.192	39.9933
1.186	39.2651
1.18	38.5894
1.174	37.846
1.168	37.1981
1.162	36.496
1.156	35.9104
1.15	35.3063
1.144	34.7366
1.138	34.2091
1.132	33.5741
1.126	33.0627
1.12	32.5901
1.114	32.1337
1.108	31.6399
1.102	31.2693
1.096	30.8213
1.09	30.4916
1.084	30.1853
1.078	29.9848
1.072	29.7269
1.066	29.4768
1.06	29.3628
1.054	29.2612
1.048	29.2033
1.042	29.0115
1.036	29.041
1.03	28.9599
1.024	29.0287
1.018	29.0453
1.012	29.117
1.006	29.1722
1	29.1533
0.994	29.3047
0.988	29.3853
0.982	29.4955
0.976	29.6467
0.97	29.7087
0.964	29.7878
0.958	29.8984
0.952	29.9668
0.946	30.103
0.94	30.1203
0.934	30.109
0.928	30.2224
0.922	30.1419
0.916	30.1553
0.91	30.1099
0.904	30.0115
0.898	29.8921
0.892	29.7227
0.886	29.5242
0.88	29.2857
0.874	29.0112
0.868	28.7493
0.862	28.429
0.856	28.3913
0.85	28.1017
0.844	27.9059
0.838	27.7288
0.832	27.5678
0.826	27.5134
0.82	27.4289
0.814	27.3939
0.808	27.4029
0.802	27.4065
0.796	27.3829
0.79	27.387
0.784	27.4086
0.778	27.3771
0.772	27.3568
0.766	27.3124
0.76	27.2388
0.754	27.133
0.748	26.9982
0.742	26.8247
0.736	26.6327
0.73	26.4075
0.724	26.1346
0.718	25.8234
0.712	25.4775
0.706	25.0729
0.7	24.6302
0.694	24.1572
0.688	23.644
0.682	23.0922
0.676	22.5273
0.67	21.9559
0.664	21.3862
0.658	20.8257
0.652	20.2954
0.646	19.7959
0.64	19.3621
0.634	18.964
0.628	18.6381
0.622	18.3753
0.616	18.1712
0.61	18.0303
0.604	17.9435
0.598	17.9211
0.592	17.9367
0.586	17.9854
0.58	18.0604
0.574	18.1358
0.568	18.2237
0.562	18.3052
0.556	18.4131
0.55	18.5332
0.544	18.557
0.538	18.4035
0.532	18.1173
0.526	17.7368
0.52	17.2672
0.514	16.5906
0.508	15.7127
0.502	14.7034
0.496	13.4325
0.49	11.9665
0.484	10.4553
0.478	9.30003
0.472	8.78381
0.466	9.04146
0.46	9.06733
0.454	8.70988
0.448	9.47537
0.442	9.51668
0.436	8.99348
0.43	8.14278
0.424	7.40288
0.418	6.8283
0.412	6.41939
0.406	6.18446
0.4	6.12747
