Name: Aphthitalite (K,Na)_3Na(SO_4)_2
Type: Mineral
Class: Sulfates
Particle Size: 125-500um
Sample No.: SO-9A
Owner: JPL
Origin: USA, California, San Bernadino County, Searles Lake.
Measurement: Hemispherical reflectance
X Units: Wavelength (micrometers)
Y Units: Reflectance (percent)
wavelength	value
2.5	74.2757
2.494	74.2922
2.488	74.4049
2.482	74.6962
2.476	74.8726
2.47	75.1478
2.464	75.343
2.458	75.6318
2.452	75.7598
2.446	75.9592
2.44	76.1912
2.434	76.2923
2.428	76.4907
2.422	76.7193
2.416	76.8995
2.41	77.0296
2.404	77.245
2.398	77.5169
2.392	77.8039
2.386	78.0608
2.38	78.3237
2.374	78.5946
2.368	78.8902
2.362	79.1143
2.356	79.336
2.35	79.598
2.344	79.7703
2.338	79.8464
2.332	79.9309
2.326	79.9676
2.32	80.0914
2.314	80.0831
2.308	80.1205
2.302	80.2251
2.296	80.3259
2.29	80.3256
2.284	80.4611
2.278	80.4653
2.272	80.5446
2.266	80.6247
2.26	80.6593
2.254	80.5988
2.248	80.6928
2.242	80.7612
2.236	80.7232
2.23	80.6114
2.224	80.6405
2.218	80.6775
2.212	80.8795
2.206	80.9718
2.2	81.1371
2.194	81.1562
2.188	81.159
2.182	81.2683
2.176	81.422
2.17	81.4179
2.164	81.5691
2.158	81.5924
2.152	81.6649
2.146	81.6523
2.14	81.5921
2.134	81.4495
2.128	81.3218
2.122	81.0337
2.116	80.7125
2.11	80.4342
2.104	80.0992
2.098	79.8285
2.092	79.7752
2.086	79.7661
2.08	79.7148
2.074	79.6791
2.068	79.5897
2.062	79.5338
2.056	79.4916
2.05	79.4931
2.044	79.4202
2.038	79.3544
2.032	79.3095
2.026	79.1782
2.02	79.1617
2.014	79.0338
2.008	78.8636
2.002	78.6672
1.996	78.4091
1.99	78.0896
1.984	77.719
1.978	77.3337
1.972	77.0273
1.966	76.5962
1.96	76.2376
1.954	75.9529
1.948	75.7113
1.942	75.5222
1.936	75.6172
1.93	75.9568
1.924	76.4171
1.918	77.121
1.912	77.9272
1.906	78.8588
1.9	80.0566
1.894	81.2368
1.888	82.0817
1.882	82.8247
1.876	83.3092
1.87	83.638
1.864	83.8782
1.858	84.0105
1.852	84.1195
1.846	84.2302
1.84	84.2586
1.834	84.4313
1.828	84.2993
1.822	84.444
1.816	84.3548
1.81	84.3916
1.804	84.4101
1.798	84.4167
1.792	84.4091
1.786	84.4067
1.78	84.5024
1.774	84.5202
1.768	84.46
1.762	84.4533
1.756	84.536
1.75	84.5478
1.744	84.6523
1.738	84.7224
1.732	84.7416
1.726	84.7327
1.72	84.8192
1.714	84.8701
1.708	84.8332
1.702	84.9079
1.696	84.9368
1.69	84.9151
1.684	85.0449
1.678	84.9106
1.672	85.0149
1.666	85.1196
1.66	85.2217
1.654	85.0747
1.648	85.1492
1.642	85.2599
1.636	85.2693
1.63	85.2285
1.624	85.2473
1.618	85.3246
1.612	85.2078
1.606	85.2227
1.6	85.2648
1.594	85.2603
1.588	85.2286
1.582	85.1826
1.576	85.164
1.57	85.1835
1.564	85.1413
1.558	85.1355
1.552	85.0436
1.546	85.0517
1.54	84.9497
1.534	84.8791
1.528	84.7875
1.522	84.7163
1.516	84.6451
1.51	84.6289
1.504	84.6269
1.498	84.4879
1.492	84.4052
1.486	84.3289
1.48	84.3473
1.474	84.2794
1.468	84.224
1.462	84.2431
1.456	84.23
1.45	84.2199
1.444	84.2989
1.438	84.3463
1.432	84.4279
1.426	84.4971
1.42	84.6247
1.414	84.7995
1.408	85.0354
1.402	85.1444
1.396	85.4425
1.39	85.626
1.384	85.6234
1.378	85.6715
1.372	85.8314
1.366	85.6971
1.36	85.8054
1.354	85.8552
1.348	85.8062
1.342	85.7965
1.336	85.882
1.33	85.9179
1.324	85.8061
1.318	85.859
1.312	85.8727
1.306	85.7886
1.3	85.8036
1.294	85.8742
1.288	85.7545
1.282	85.8109
1.276	85.8394
1.27	85.7779
1.264	85.7895
1.258	85.7511
1.252	85.7628
1.246	85.6987
1.24	85.6784
1.234	85.7129
1.228	85.6902
1.222	85.727
1.216	85.6316
1.21	85.7052
1.204	85.732
1.198	85.6949
1.192	85.6445
1.186	85.686
1.18	85.6515
1.174	85.6604
1.168	85.6469
1.162	85.614
1.156	85.7034
1.15	85.6737
1.144	85.6869
1.138	85.7508
1.132	85.7137
1.126	85.7409
1.12	85.7064
1.114	85.6372
1.108	85.6865
1.102	85.6778
1.096	85.7318
1.09	85.7574
1.084	85.6373
1.078	85.7719
1.072	85.69
1.066	85.7027
1.06	85.7234
1.054	85.6548
1.048	85.6188
1.042	85.7227
1.036	85.7065
1.03	85.6337
1.024	85.6299
1.018	85.6799
1.012	85.5941
1.006	85.597
1	85.563
0.994	85.5564
0.988	85.5862
0.982	85.5313
0.976	85.599
0.97	85.4854
0.964	85.5297
0.958	85.4692
0.952	85.4696
0.946	85.5042
0.94	85.4638
0.934	85.5647
0.928	85.4625
0.922	85.4254
0.916	85.5058
0.91	85.3822
0.904	85.2957
0.898	85.3807
0.892	85.3855
0.886	85.3646
0.88	85.3011
0.874	85.2197
0.868	85.2276
0.862	85.2301
0.856	85.7978
0.85	85.5036
0.844	85.5039
0.838	85.4578
0.832	85.4829
0.826	85.637
0.82	85.6589
0.814	85.5326
0.808	85.4412
0.802	85.4785
0.796	85.5409
0.79	85.4692
0.784	85.4106
0.778	85.3521
0.772	85.2965
0.766	85.3704
0.76	85.3583
0.754	85.2776
0.748	85.2872
0.742	85.2012
0.736	85.2073
0.73	85.2422
0.724	85.1722
0.718	85.1589
0.712	85.1022
0.706	85.0729
0.7	85.0319
0.694	85.0204
0.688	84.9783
0.682	84.915
0.676	84.8889
0.67	84.8359
0.664	84.7932
0.658	84.7383
0.652	84.6635
0.646	84.6072
0.64	84.5462
0.634	84.4844
0.628	84.3985
0.622	84.3334
0.616	84.2506
0.61	84.154
0.604	84.0583
0.598	84.0057
0.592	83.9567
0.586	83.8546
0.58	83.7394
0.574	83.6319
0.568	83.4936
0.562	83.3523
0.556	83.2161
0.55	83.041
0.544	82.871
0.538	82.6974
0.532	82.492
0.526	82.2662
0.52	82.0208
0.514	81.7726
0.508	81.5016
0.502	81.2057
0.496	80.8651
0.49	80.4809
0.484	80.1938
0.478	79.8117
0.472	79.4362
0.466	79.0414
0.46	78.6646
0.454	78.251
0.448	77.8161
0.442	77.3762
0.436	76.9512
0.43	76.4781
0.424	76.0279
0.418	75.5
0.412	75.0247
0.406	74.4771
0.4	73.8797
