Name: Wollastonite CaSiO_3
Type: Mineral
Class: Silicates
Subclass: Inosilicates
Particle Size: 125-500um
Sample No.: IN-2A
Owner: JPL
Origin: USA, California, Inyo County, Panamint Mountains.
Measurement: Hemispherical reflectance
X Units: Wavelength (micrometers)
Y Units: Reflectance (percent)
wavelength	value
2.5	61.2938
2.494	61.4896
2.488	61.8041
2.482	61.9509
2.476	61.9357
2.47	62.2288
2.464	62.5942
2.458	62.9465
2.452	63.31
2.446	63.7287
2.44	63.941
2.434	64.0279
2.428	63.9756
2.422	63.8996
2.416	63.5802
2.41	63.4737
2.404	63.2981
2.398	62.9568
2.392	62.8874
2.386	62.6686
2.38	62.6681
2.374	62.6474
2.368	62.4475
2.362	62.1094
2.356	61.8956
2.35	62.0207
2.344	62.2587
2.338	62.5844
2.332	63.088
2.326	63.9559
2.32	65.1462
2.314	66.277
2.308	66.8826
2.302	66.8886
2.296	66.7256
2.29	66.4549
2.284	66.4412
2.278	66.5865
2.272	66.9623
2.266	67.171
2.26	67.3644
2.254	67.2881
2.248	67.199
2.242	66.8653
2.236	66.6713
2.23	66.6676
2.224	67.0403
2.218	67.4677
2.212	68.0461
2.206	68.4958
2.2	68.9329
2.194	69.0661
2.188	69.1926
2.182	69.3133
2.176	69.4751
2.17	69.5665
2.164	69.7721
2.158	69.8828
2.152	70.0073
2.146	70.045
2.14	70.0665
2.134	69.9169
2.128	69.874
2.122	69.6822
2.116	69.4355
2.11	69.1888
2.104	69.011
2.098	68.8286
2.092	68.9172
2.086	69.0124
2.08	69.0001
2.074	69.082
2.068	69.0564
2.062	69.0797
2.056	69.1066
2.05	69.1584
2.044	69.1394
2.038	69.0607
2.032	69.0265
2.026	68.8987
2.02	68.8087
2.014	68.74
2.008	68.5741
2.002	68.4093
1.996	68.295
1.99	68.1172
1.984	67.9275
1.978	67.742
1.972	67.5247
1.966	67.3058
1.96	67.1636
1.954	66.9487
1.948	66.8899
1.942	66.7807
1.936	66.6505
1.93	66.3917
1.924	66.2723
1.918	66.3348
1.912	66.6014
1.906	67.0265
1.9	67.9003
1.894	68.6471
1.888	69.3907
1.882	69.7052
1.876	69.8861
1.87	70.2272
1.864	70.4295
1.858	70.5211
1.852	70.6317
1.846	70.6581
1.84	70.6664
1.834	70.6684
1.828	70.7135
1.822	70.7159
1.816	70.7747
1.81	70.7951
1.804	70.816
1.798	70.7516
1.792	70.7633
1.786	70.7342
1.78	70.6723
1.774	70.6652
1.768	70.5901
1.762	70.5867
1.756	70.5101
1.75	70.5178
1.744	70.53
1.738	70.5097
1.732	70.4752
1.726	70.5168
1.72	70.5363
1.714	70.4311
1.708	70.364
1.702	70.31
1.696	70.3277
1.69	70.2352
1.684	70.1834
1.678	70.1704
1.672	70.0568
1.666	70.0174
1.66	69.9635
1.654	69.9263
1.648	69.9484
1.642	69.9531
1.636	69.7748
1.63	69.7959
1.624	69.7989
1.618	69.5928
1.612	69.6076
1.606	69.5671
1.6	69.5882
1.594	69.5426
1.588	69.4792
1.582	69.4142
1.576	69.377
1.57	69.329
1.564	69.3246
1.558	69.2813
1.552	69.2139
1.546	69.1666
1.54	69.1668
1.534	69.1007
1.528	69.0752
1.522	69.0227
1.516	69.023
1.51	68.9256
1.504	68.8087
1.498	68.7345
1.492	68.5204
1.486	67.8342
1.48	67.053
1.474	67.2986
1.468	68.1018
1.462	68.4345
1.456	68.5092
1.45	68.5694
1.444	68.6148
1.438	68.6284
1.432	68.6098
1.426	68.7144
1.42	68.736
1.414	68.8892
1.408	69.0052
1.402	69.0875
1.396	69.2607
1.39	69.4513
1.384	69.4208
1.378	69.5033
1.372	69.5323
1.366	69.5208
1.36	69.3693
1.354	69.4166
1.348	69.422
1.342	69.3935
1.336	69.4271
1.33	69.3269
1.324	69.3461
1.318	69.2706
1.312	69.2554
1.306	69.1645
1.3	69.1047
1.294	69.0593
1.288	69.0469
1.282	68.9452
1.276	68.865
1.27	68.835
1.264	68.7282
1.258	68.6244
1.252	68.6593
1.246	68.5118
1.24	68.4596
1.234	68.3922
1.228	68.3341
1.222	68.1902
1.216	68.168
1.21	68.019
1.204	67.9943
1.198	67.9162
1.192	67.9628
1.186	67.8297
1.18	67.7707
1.174	67.7158
1.168	67.6639
1.162	67.6263
1.156	67.7168
1.15	67.6774
1.144	67.7028
1.138	67.6628
1.132	67.688
1.126	67.6569
1.12	67.7382
1.114	67.6756
1.108	67.7911
1.102	67.8065
1.096	67.883
1.09	67.9386
1.084	67.9023
1.078	67.8421
1.072	68.0013
1.066	68.0272
1.06	68.1392
1.054	68.1223
1.048	68.1331
1.042	68.2282
1.036	68.2713
1.03	68.2626
1.024	68.3487
1.018	68.4372
1.012	68.4132
1.006	68.4878
1	68.4729
0.994	68.569
0.988	68.6123
0.982	68.6843
0.976	68.6448
0.97	68.7711
0.964	68.937
0.958	68.9922
0.952	69.0889
0.946	69.2444
0.94	69.3766
0.934	69.475
0.928	69.6827
0.922	69.8039
0.916	70.0123
0.91	70.2351
0.904	70.4991
0.898	70.6358
0.892	70.8343
0.886	71.1254
0.88	71.2761
0.874	71.5609
0.868	71.7913
0.862	72.069
0.856	72.7277
0.85	72.931
0.844	73.1463
0.838	73.3215
0.832	73.4992
0.826	73.6465
0.82	73.8647
0.814	74.0205
0.808	74.1304
0.802	74.2916
0.796	74.3837
0.79	74.4352
0.784	74.5048
0.778	74.5763
0.772	74.6516
0.766	74.635
0.76	74.6964
0.754	74.7295
0.748	74.7386
0.742	74.7444
0.736	74.7114
0.73	74.6885
0.724	74.6564
0.718	74.5956
0.712	74.518
0.706	74.4527
0.7	74.4092
0.694	74.3185
0.688	74.2223
0.682	74.2931
0.676	74.25
0.67	74.1429
0.664	74.0847
0.658	74.0184
0.652	74.0053
0.646	74.0336
0.64	73.9975
0.634	74.0059
0.628	74.0271
0.622	74.1071
0.616	74.1407
0.61	74.1975
0.604	74.2475
0.598	74.3216
0.592	74.4163
0.586	74.4263
0.58	74.4349
0.574	74.4253
0.568	74.4102
0.562	74.3987
0.556	74.288
0.55	74.1975
0.544	74.084
0.538	73.9361
0.532	73.7765
0.526	73.6047
0.52	73.38
0.514	73.1577
0.508	72.9145
0.502	72.6669
0.496	72.3616
0.49	72.0245
0.484	71.6724
0.478	71.3608
0.472	71.0285
0.466	70.7012
0.46	70.3498
0.454	70.004
0.448	69.6744
0.442	69.3738
0.436	69.0742
0.43	68.7884
0.424	68.5015
0.418	68.2177
0.412	67.9255
0.406	67.5966
0.4	67.2682
