Name: Johannsenite Ca(Mn,Fe^2+)(SiO_3)_2
Type: Mineral
Class: Silicates
Subclass: Inosilicates
Particle Size: 125-500um
Sample No.: IN-12A
Owner: JPL
Origin: USA, Arizona, Graham County, Aravaipa.
Measurement: Hemispherical reflectance
X Units: Wavelength (micrometers)
Y Units: Reflectance (percent)
wavelength	value
2.5	19.8453
2.494	19.7793
2.488	20.0653
2.482	20.4551
2.476	20.5013
2.47	20.6571
2.464	21.0448
2.458	21.1752
2.452	21.4175
2.446	21.6413
2.44	21.8147
2.434	22.0578
2.428	22.2539
2.422	22.419
2.416	22.5671
2.41	22.6961
2.404	22.8109
2.398	22.9689
2.392	23.1147
2.386	23.3067
2.38	23.5157
2.374	23.766
2.368	23.9264
2.362	24.0976
2.356	24.2507
2.35	24.2858
2.344	24.2656
2.338	24.3
2.332	24.2625
2.326	24.121
2.32	23.9919
2.314	23.8239
2.308	23.5022
2.302	23.2985
2.296	23.1453
2.29	23.1001
2.284	23.2162
2.278	23.4047
2.272	23.5755
2.266	23.68
2.26	23.7553
2.254	23.81
2.248	23.8143
2.242	23.8481
2.236	23.8714
2.23	23.7773
2.224	23.7577
2.218	23.7546
2.212	23.7464
2.206	23.8378
2.2	23.724
2.194	23.7308
2.188	23.7298
2.182	23.6794
2.176	23.6927
2.17	23.629
2.164	23.5093
2.158	23.4352
2.152	23.3586
2.146	23.2156
2.14	23.0716
2.134	22.9107
2.128	22.6744
2.122	22.4693
2.116	22.1896
2.11	22.0216
2.104	21.7938
2.098	21.5378
2.092	21.3864
2.086	21.2744
2.08	21.0266
2.074	20.8762
2.068	20.7559
2.062	20.5572
2.056	20.3965
2.05	20.1913
2.044	20.0472
2.038	19.8533
2.032	19.6565
2.026	19.3996
2.02	19.1614
2.014	18.9326
2.008	18.6858
2.002	18.4613
1.996	18.1753
1.99	17.9026
1.984	17.6684
1.978	17.4356
1.972	17.1982
1.966	16.996
1.96	16.7235
1.954	16.5727
1.948	16.3485
1.942	16.1416
1.936	15.9889
1.93	15.7396
1.924	15.4947
1.918	15.2243
1.912	15.1122
1.906	15.2834
1.9	15.892
1.894	16.5882
1.888	17.1293
1.882	17.3948
1.876	17.5381
1.87	17.5736
1.864	17.6672
1.858	17.548
1.852	17.4063
1.846	17.2983
1.84	17.2721
1.834	17.0597
1.828	16.9224
1.822	16.7952
1.816	16.641
1.81	16.5709
1.804	16.4404
1.798	16.3297
1.792	16.2046
1.786	16.0242
1.78	15.9592
1.774	15.8041
1.768	15.6875
1.762	15.5732
1.756	15.3904
1.75	15.3814
1.744	15.1437
1.738	15.1037
1.732	14.9746
1.726	14.8237
1.72	14.7329
1.714	14.6369
1.708	14.4815
1.702	14.3902
1.696	14.2343
1.69	14.1351
1.684	14.008
1.678	13.8855
1.672	13.7874
1.666	13.6535
1.66	13.473
1.654	13.3287
1.648	13.3188
1.642	13.2553
1.636	13.0267
1.63	12.946
1.624	12.835
1.618	12.7531
1.612	12.571
1.606	12.5533
1.6	12.4237
1.594	12.2896
1.588	12.1539
1.582	12.0546
1.576	11.9404
1.57	11.8255
1.564	11.7119
1.558	11.5821
1.552	11.5339
1.546	11.371
1.54	11.2588
1.534	11.0792
1.528	11.0379
1.522	10.9017
1.516	10.8134
1.51	10.7127
1.504	10.5614
1.498	10.499
1.492	10.3804
1.486	10.2787
1.48	10.141
1.474	10.0012
1.468	9.92516
1.462	9.7894
1.456	9.76264
1.45	9.58589
1.444	9.48102
1.438	9.3228
1.432	9.25823
1.426	9.18534
1.42	9.07643
1.414	8.93259
1.408	8.87813
1.402	8.83401
1.396	8.84408
1.39	8.82431
1.384	8.71088
1.378	8.64004
1.372	8.40134
1.366	8.4387
1.36	8.20621
1.354	8.27516
1.348	8.02768
1.342	7.99731
1.336	7.90039
1.33	7.72622
1.324	7.66516
1.318	7.67331
1.312	7.53803
1.306	7.38376
1.3	7.35477
1.294	7.23839
1.288	7.15303
1.282	7.05629
1.276	7.00267
1.27	6.88137
1.264	6.92918
1.258	6.78415
1.252	6.70761
1.246	6.62161
1.24	6.61922
1.234	6.56375
1.228	6.44955
1.222	6.41352
1.216	6.38244
1.21	6.3159
1.204	6.30179
1.198	6.24808
1.192	6.15095
1.186	6.25582
1.18	6.18751
1.174	6.1153
1.168	6.04891
1.162	6.09438
1.156	6.02631
1.15	6.03971
1.144	6.02499
1.138	5.99276
1.132	5.93773
1.126	5.95357
1.12	5.89436
1.114	5.85523
1.108	5.98121
1.102	5.93445
1.096	5.84257
1.09	5.84703
1.084	5.80617
1.078	5.8248
1.072	5.64483
1.066	5.74297
1.06	5.68654
1.054	5.73799
1.048	5.72179
1.042	5.62277
1.036	5.68519
1.03	5.58836
1.024	5.55583
1.018	5.48069
1.012	5.52595
1.006	5.41763
1	5.53219
0.994	5.47299
0.988	5.41206
0.982	5.41382
0.976	5.32961
0.97	5.39265
0.964	5.32605
0.958	5.34535
0.952	5.31182
0.946	5.33017
0.94	5.34286
0.934	5.38588
0.928	5.32112
0.922	5.28958
0.916	5.33104
0.91	5.33683
0.904	5.25654
0.898	5.25788
0.892	5.26183
0.886	5.24825
0.88	5.27773
0.874	5.22944
0.868	5.21766
0.862	5.11584
0.856	5.43982
0.85	5.45023
0.844	5.43061
0.838	5.38982
0.832	5.36977
0.826	5.35968
0.82	5.32445
0.814	5.31089
0.808	5.2835
0.802	5.26924
0.796	5.25145
0.79	5.22565
0.784	5.2121
0.778	5.20351
0.772	5.18086
0.766	5.16757
0.76	5.15876
0.754	5.14348
0.748	5.13169
0.742	5.12999
0.736	5.11347
0.73	5.10521
0.724	5.097
0.718	5.09159
0.712	5.09326
0.706	5.09613
0.7	5.0961
0.694	5.0952
0.688	5.09715
0.682	5.09247
0.676	5.08849
0.67	5.08094
0.664	5.06685
0.658	5.05458
0.652	5.03508
0.646	5.01614
0.64	5.00072
0.634	4.98345
0.628	4.96718
0.622	4.94794
0.616	4.93115
0.61	4.91571
0.604	4.901
0.598	4.88691
0.592	4.87127
0.586	4.84936
0.58	4.83022
0.574	4.80033
0.568	4.76939
0.562	4.73273
0.556	4.69515
0.55	4.6526
0.544	4.6078
0.538	4.56303
0.532	4.51208
0.526	4.46818
0.52	4.42512
0.514	4.38394
0.508	4.34359
0.502	4.31494
0.496	4.28599
0.49	4.26496
0.484	4.24162
0.478	4.21486
0.472	4.19449
0.466	4.1734
0.46	4.16062
0.454	4.14573
0.448	4.13816
0.442	4.12763
0.436	4.11386
0.43	4.10852
0.424	4.09299
0.418	4.08414
0.412	4.07723
0.406	4.07599
0.4	4.07415
