Name: Fayalite Fe_2SiO_4
Type: Mineral
Class: Silicates
Subclass: Nesosilicates
Particle Size: 45-125um
Sample No.: NS-1A
Owner: JPL
Wavelength Range: VNIR-SWIR
Measurement: Hemispherical reflectance
X Units: Wavelength (micrometers)
Y Units: Reflectance (percent)
wavelength	value
0.4	4.14
0.403	4.19
0.406	4.18
0.409	4.3
0.412	4.43
0.415	4.48
0.418	4.54
0.421	4.49
0.424	4.47
0.427	4.59
0.43	4.67
0.433	4.66
0.436	4.66
0.439	4.78
0.442	4.82
0.445	4.94
0.448	4.89
0.451	4.84
0.454	5.01
0.457	5.04
0.46	4.95
0.463	5
0.466	5.14
0.469	5.2
0.472	5.19
0.475	5.13
0.478	5.19
0.481	5.29
0.484	5.29
0.487	5.31
0.49	5.49
0.493	5.58
0.496	5.71
0.499	5.71
0.502	5.69
0.505	5.97
0.508	5.87
0.511	5.75
0.514	5.91
0.517	6.08
0.52	6.36
0.523	6.34
0.526	6.39
0.529	6.69
0.532	6.66
0.535	6.64
0.538	6.87
0.541	6.88
0.544	6.99
0.547	6.95
0.55	6.91
0.553	7
0.556	7.14
0.559	7.27
0.562	7.45
0.565	7.61
0.568	7.64
0.571	7.51
0.574	7.51
0.577	7.52
0.58	7.59
0.583	7.65
0.586	7.58
0.589	7.46
0.592	7.65
0.595	7.64
0.598	7.61
0.601	7.7
0.604	7.64
0.607	7.75
0.61	7.83
0.613	7.64
0.616	7.63
0.619	7.78
0.622	7.7
0.625	7.65
0.628	7.64
0.631	7.72
0.634	7.86
0.637	7.89
0.64	7.87
0.643	7.96
0.646	7.82
0.649	7.76
0.652	7.68
0.655	7.72
0.658	7.68
0.661	7.75
0.664	7.7
0.667	7.58
0.67	7.65
0.673	7.81
0.676	7.64
0.679	7.69
0.682	7.65
0.685	7.73
0.688	7.74
0.691	7.68
0.694	7.59
0.697	7.77
0.7	7.6
0.703	7.58
0.706	7.68
0.709	7.73
0.712	7.76
0.715	7.57
0.718	7.63
0.721	7.68
0.724	7.58
0.727	7.45
0.73	7.56
0.733	7.58
0.736	7.56
0.739	7.45
0.742	7.4
0.745	7.5
0.748	7.5
0.751	7.45
0.754	7.28
0.757	7.34
0.76	7.39
0.763	7.28
0.766	7.15
0.769	7.2
0.772	7.16
0.775	7.26
0.778	7.15
0.781	6.97
0.784	7.03
0.787	7.07
0.79	7.02
0.793	7.07
0.796	7.07
0.799	7
0.808	7.39
0.82	7.08
0.832	6.79
0.844	6.51
0.856	6.15
0.868	5.93
0.88	5.64
0.892	5.41
0.904	5.17
0.916	4.99
0.928	4.87
0.94	4.64
0.952	4.53
0.964	4.4
0.976	4.4
0.988	4.32
1	4.29
1.012	4.25
1.024	4.22
1.036	4.21
1.048	4.39
1.06	4.49
1.072	4.67
1.084	4.87
1.096	5.07
1.108	5.27
1.12	5.48
1.132	5.57
1.144	5.67
1.156	5.78
1.168	5.86
1.18	5.95
1.192	6.04
1.204	6.14
1.216	6.17
1.228	6.31
1.24	6.43
1.252	6.44
1.264	6.55
1.276	6.65
1.288	6.82
1.3	6.9
1.312	6.96
1.324	7.15
1.336	7.24
1.348	7.4
1.36	7.47
1.372	7.57
1.384	7.69
1.396	7.83
1.408	7.81
1.42	8.02
1.432	8.23
1.444	8.5
1.456	8.61
1.468	8.7
1.48	8.82
1.492	9.01
1.504	9.18
1.516	9.34
1.528	9.61
1.54	9.78
1.552	9.94
1.564	10.12
1.576	10.2
1.588	10.47
1.6	10.66
1.612	10.87
1.624	11.07
1.636	11.14
1.648	11.29
1.66	11.5
1.672	11.74
1.684	11.85
1.696	12.06
1.708	12.07
1.72	12.24
1.732	12.4
1.744	12.51
1.756	12.52
1.768	12.65
1.78	12.67
1.792	12.82
1.804	12.9
1.816	12.97
1.828	13.1
1.84	13.11
1.852	13.12
1.864	13.16
1.876	13.1
1.888	13.13
1.9	13.12
1.912	13.1
1.924	13.09
1.936	13.12
1.948	13.17
1.96	13.27
1.972	13.31
1.984	13.35
1.996	13.36
2.008	13.37
2.02	13.39
2.032	13.36
2.044	13.4
2.056	13.38
2.068	13.35
2.08	13.35
2.092	13.34
2.104	13.34
2.116	13.33
2.128	13.3
2.14	13.24
2.152	13.16
2.164	13.17
2.176	13.03
2.188	13.1
2.2	13.01
2.212	12.95
2.224	12.94
2.236	12.88
2.248	12.78
2.26	12.63
2.272	12.52
2.284	12.44
2.296	12.32
2.308	12.18
2.32	12.1
2.332	12.06
2.344	12
2.356	12.06
2.368	11.97
2.38	11.97
2.392	11.93
2.404	11.86
2.416	11.78
2.428	11.82
2.44	11.77
2.452	11.7
2.464	11.72
2.476	11.66
2.488	11.58
2.5	11.64
