Name: Lepidolite K(Li,Al)3(Si,Al)_4O_10(F,OH)_2
Type: Mineral
Class: Silicates
Subclass: Phyllosilicates
Particle Size: 45-125um
Sample No.: PS-13A
Owner: JPL
Origin: USA, South Dakota.
Description: Yellow lepidolite.
Measurement: Hemispherical reflectance
X Units: Wavelength (micrometers)
Y Units: Reflectance (percent)
wavelength	value
2.5	37.3406
2.494	36.3416
2.488	35.5206
2.482	35.1217
2.476	34.5461
2.47	33.9395
2.464	33.3261
2.458	32.4207
2.452	31.8045
2.446	31.1902
2.44	30.8558
2.434	31.0387
2.428	31.6865
2.422	32.7579
2.416	34.2168
2.41	35.8004
2.404	37.3219
2.398	38.505
2.392	39.13
2.386	39.4892
2.38	39.5954
2.374	39.5469
2.368	39.2455
2.362	38.6603
2.356	37.708
2.35	37.0342
2.344	37.0174
2.338	37.9784
2.332	39.8806
2.326	42.3064
2.32	45.0797
2.314	47.8573
2.308	50.6764
2.302	53.2358
2.296	55.5048
2.29	57.35
2.284	58.6223
2.278	59.4481
2.272	59.9219
2.266	60.0151
2.26	59.9455
2.254	59.6183
2.248	59.1491
2.242	58.5511
2.236	57.4787
2.23	55.3988
2.224	51.9818
2.218	46.6736
2.212	40.3152
2.206	34.0611
2.2	29.7959
2.194	28.8353
2.188	31.5614
2.182	37.4346
2.176	44.6749
2.17	51.3755
2.164	56.5742
2.158	60.3583
2.152	63.0524
2.146	64.8272
2.14	66.1033
2.134	66.4671
2.128	66.15
2.122	65.885
2.116	65.9798
2.11	66.9104
2.104	68.017
2.098	69.6718
2.092	71.5103
2.086	73.305
2.08	74.554
2.074	75.5046
2.068	76.0669
2.062	76.598
2.056	76.9168
2.05	77.208
2.044	77.5352
2.038	77.8413
2.032	78.2365
2.026	78.4851
2.02	78.6798
2.014	78.7877
2.008	78.8236
2.002	78.9923
1.996	78.9924
1.99	79.181
1.984	79.2574
1.978	79.4609
1.972	79.6982
1.966	79.8804
1.96	80.1841
1.954	80.4827
1.948	80.6693
1.942	80.8714
1.936	81.1649
1.93	81.1142
1.924	81.2324
1.918	81.3117
1.912	81.5539
1.906	81.8908
1.9	82.5597
1.894	83.2547
1.888	83.745
1.882	84.129
1.876	84.3347
1.87	84.6697
1.864	84.7465
1.858	84.6941
1.852	84.3066
1.846	83.7602
1.84	83.3714
1.834	83.416
1.828	83.9332
1.822	84.5915
1.816	85.1183
1.81	85.535
1.804	85.7366
1.798	85.8061
1.792	85.9204
1.786	85.8895
1.78	85.8112
1.774	85.6377
1.768	85.6974
1.762	85.7029
1.756	85.8238
1.75	86.0156
1.744	86.2227
1.738	86.3509
1.732	86.3855
1.726	86.3199
1.72	86.4026
1.714	86.3734
1.708	86.4448
1.702	86.3979
1.696	86.3777
1.69	86.326
1.684	86.3864
1.678	86.3798
1.672	86.2753
1.666	86.2861
1.66	86.2457
1.654	86.2533
1.648	86.1673
1.642	86.0093
1.636	86.1789
1.63	86.0459
1.624	86.071
1.618	86.0401
1.612	85.8935
1.606	85.9457
1.6	85.9111
1.594	85.7979
1.588	85.6618
1.582	85.5162
1.576	85.425
1.57	85.2845
1.564	85.1056
1.558	84.9218
1.552	84.8686
1.546	84.6424
1.54	84.4974
1.534	84.3781
1.528	84.1801
1.522	83.9693
1.516	83.7289
1.51	83.5634
1.504	83.3484
1.498	83.0792
1.492	82.8529
1.486	82.6519
1.48	82.3888
1.474	82.1078
1.468	81.7813
1.462	81.3643
1.456	80.7381
1.45	79.9972
1.444	79.1685
1.438	77.7556
1.432	74.2528
1.426	66.457
1.42	53.7206
1.414	41.6318
1.408	41.9268
1.402	46.3942
1.396	57.1179
1.39	70.3505
1.384	74.4957
1.378	75.1038
1.372	75.3835
1.366	75.7647
1.36	76.1353
1.354	76.1652
1.348	75.8836
1.342	75.4351
1.336	74.8039
1.33	74.373
1.324	74.1136
1.318	73.8191
1.312	73.7412
1.306	73.765
1.3	73.706
1.294	73.6195
1.288	73.6325
1.282	73.641
1.276	73.5238
1.27	73.2989
1.264	73.1863
1.258	72.7906
1.252	72.376
1.246	72.1468
1.24	72.1642
1.234	72.1732
1.228	72.058
1.222	71.918
1.216	71.9268
1.21	71.8625
1.204	71.7973
1.198	71.7002
1.192	71.7229
1.186	71.6231
1.18	71.6326
1.174	71.5955
1.168	71.678
1.162	71.7908
1.156	71.8153
1.15	71.9989
1.144	72.0932
1.138	72.1595
1.132	72.3662
1.126	72.5407
1.12	72.6473
1.114	72.8138
1.108	72.9754
1.102	73.2137
1.096	73.3678
1.09	73.565
1.084	73.7049
1.078	73.9816
1.072	74.1899
1.066	74.2736
1.06	74.3807
1.054	74.5733
1.048	74.7353
1.042	74.7593
1.036	74.8421
1.03	74.8577
1.024	74.7506
1.018	74.7144
1.012	74.5998
1.006	74.3744
1	74.2607
0.994	73.9178
0.988	73.6102
0.982	73.2225
0.976	72.6167
0.97	71.293
0.964	69.9988
0.958	70.3539
0.952	71.1552
0.946	71.3527
0.94	71.2002
0.934	71.0962
0.928	70.856
0.922	70.7935
0.916	70.6946
0.91	70.7237
0.904	70.7445
0.898	70.8919
0.892	70.9732
0.886	71.1539
0.88	71.3406
0.874	71.6352
0.868	71.8933
0.862	72.1831
0.856	72.7737
0.85	73.2083
0.844	73.6486
0.838	74.0425
0.832	74.5649
0.826	75.0102
0.82	75.551
0.814	76.0215
0.808	76.4947
0.802	76.9115
0.796	77.3983
0.79	77.7829
0.784	78.2318
0.778	78.5323
0.772	78.9276
0.766	79.2538
0.76	79.4925
0.754	79.7385
0.748	79.9146
0.742	79.9416
0.736	80.1051
0.73	80.2686
0.724	80.3444
0.718	80.3874
0.712	80.3496
0.706	80.3252
0.7	80.2676
0.694	80.1809
0.688	80.0891
0.682	79.9886
0.676	79.8385
0.67	79.6552
0.664	79.4929
0.658	79.2993
0.652	79.0795
0.646	78.8639
0.64	78.6253
0.634	78.3813
0.628	78.1092
0.622	77.8715
0.616	77.5755
0.61	77.3323
0.604	77.0665
0.598	76.8634
0.592	76.6937
0.586	76.4478
0.58	76.2314
0.574	76.0251
0.568	75.8181
0.562	75.5959
0.556	75.2976
0.55	75.0043
0.544	74.6152
0.538	74.1772
0.532	73.6739
0.526	73.0765
0.52	72.3979
0.514	71.5275
0.508	70.5766
0.502	69.5543
0.496	68.4132
0.49	67.0992
0.484	65.5175
0.478	63.928
0.472	62.1971
0.466	60.2608
0.46	58.0888
0.454	55.6489
0.448	52.887
0.442	49.7862
0.436	46.8091
0.43	43.8157
0.424	40.8076
0.418	37.8288
0.412	34.9192
0.406	32.0389
0.4	29.2467
