Name: Plumbojarosite PbFe_3^3+(SO_4)_4(OH)_12
Type: Mineral
Class: Sulfates
Particle Size: 0-45um
Sample No.: SO-7B
Owner: JPL
Origin: Mexico, Hidalgo, Zimapan, Lomo De Toro Mine
Measurement: Hemispherical reflectance
X Units: Wavelength (micrometers)
Y Units: Reflectance (percent)
wavelength	value
15.3853	0.278775
15.1161	0.740021
14.8563	0.800932
14.6052	0.991872
14.3624	1.14873
14.1276	1.18408
13.9004	1.1494
13.6803	1.09329
13.4671	1.61275
13.2604	1.39729
13.06	1.94115
12.8656	2.02178
12.6769	1.93844
12.4936	1.95236
12.3155	1.85762
12.1425	1.89812
11.9742	2.63621
11.8106	3.02464
11.6513	3.50886
11.4963	3.84201
11.3454	4.08956
11.1983	4.50138
11.0551	5.3065
10.9154	5.92887
10.7793	6.77008
10.6465	6.93145
10.5169	6.54901
10.3904	5.9461
10.267	5.77901
10.1464	3.99861
10.0287	2.69149
9.91364	2.31649
9.80119	2.00098
9.69128	1.94883
9.5838	0.859436
9.47867	1.0854
9.37583	1.55482
9.27519	2.16786
9.17669	2.03166
9.08027	1.28871
8.98585	1.58749
8.89337	1.97024
8.80277	1.84086
8.714	1.98419
8.62701	1.71083
8.54174	1.87519
8.45813	1.70313
8.37614	1.26877
8.29573	0.986466
8.21685	0.970994
8.13946	0.977763
8.0635	1.01887
7.98896	1.4793
7.91578	3.36861
7.84392	5.69819
7.77337	7.40079
7.70406	8.29517
7.63598	8.67765
7.5691	8.90748
7.50338	9.13031
7.43879	9.22432
7.37529	9.39407
7.31288	9.55632
7.25152	9.88149
7.19117	10.2177
7.13182	10.5361
7.07344	10.7483
7.01601	11.3866
6.95951	12.3025
6.90391	12.8322
6.84918	13.7
6.79532	14.8468
6.74231	15.8003
6.69011	17.0584
6.63871	18.7757
6.5881	18.9976
6.53825	19.4442
6.48915	20.394
6.44079	20.1452
6.39314	20.2572
6.34618	20.7415
6.29992	20.5643
6.25432	21.0342
6.20938	21.0461
6.16508	21.0233
6.12141	21.2997
6.07835	22.9458
6.0359	24.2602
5.99403	26.138
5.95274	27.6406
5.91201	28.665
5.87184	29.9484
5.83221	31.2257
5.79311	31.3731
5.75453	32.3737
5.71646	33.681
5.6789	34.1303
5.64182	34.8785
5.60522	34.8333
5.5691	35.3388
5.53344	35.8663
5.49823	36.4989
5.46347	37.4121
5.42914	37.9231
5.39525	38.2514
5.36177	38.5077
5.32871	38.3924
5.29605	38.0697
5.26379	37.1425
5.23192	35.8044
5.20044	33.7905
5.16933	30.8375
5.13859	27.2484
5.10821	23.5886
5.07819	23.0669
5.04852	23.6671
5.0192	24.0789
4.99021	23.0422
4.96156	21.8817
4.93324	21.0193
4.90524	21.791
4.87755	22.9732
4.85017	23.0609
4.8231	24.8021
4.79633	26.4933
4.76986	26.9158
4.74367	27.251
4.71777	28.5015
4.69216	29.7278
4.66682	30.8682
4.64175	31.8822
4.61695	32.4582
4.59241	32.7369
4.56814	33.5533
4.54411	35.0218
4.52034	36.6636
4.49682	38.2547
4.47354	39.8134
4.4505	41.4762
4.4277	42.9373
4.40513	43.8717
4.38278	44.5971
4.36067	45.3732
4.33877	45.8719
4.3171	46.0577
4.29564	45.7527
4.27439	45.6571
4.25335	46.3365
4.23252	46.3559
4.21189	47.0776
4.19146	47.6741
4.17123	47.8712
4.15119	47.8204
4.13134	48.1899
4.11168	48.3039
4.09221	48.5352
4.07292	48.5675
4.05382	48.4581
4.03489	48.2901
4.01614	48.0424
3.99756	47.9231
3.97915	47.6952
3.96091	47.4524
3.94284	47.0747
3.92493	46.676
3.90718	46.2653
3.8896	45.7746
3.87217	45.1539
3.8549	44.6721
3.83777	44.1268
3.82081	43.4307
3.80399	42.6359
3.78731	42.1295
3.77079	41.4043
3.7544	40.6288
3.73816	39.9357
3.72206	39.2241
3.7061	38.5368
3.69027	37.626
3.67458	36.981
3.65902	36.1018
3.64359	35.4089
3.6283	34.5999
3.61312	33.993
3.59808	33.1563
3.58316	32.4892
3.56836	31.6964
3.55369	31.1267
3.53914	30.2633
3.5247	29.5934
3.51038	28.9785
3.49618	28.2385
3.48209	27.5862
3.46812	26.9786
3.45425	26.2839
3.4405	25.7488
3.42686	25.0981
3.41332	24.6209
3.39989	24.1323
3.38657	23.7421
3.37335	23.223
3.36023	22.6035
3.34721	22.206
3.3343	21.713
3.32148	21.3372
3.30876	20.7189
3.29614	20.0852
3.28362	19.4742
3.27119	18.8244
3.25885	18.2236
3.24661	17.6494
3.23446	16.9118
3.22239	16.1079
3.21042	15.1746
3.19854	14.4982
3.18674	13.6938
3.17504	12.9396
3.16341	12.5796
3.15187	11.8115
3.14042	11.0333
3.12905	10.5593
3.11776	9.61095
3.10655	8.86177
3.09542	8.101
3.08437	7.24439
3.0734	6.52462
3.06251	5.62078
3.0517	4.94692
3.04096	4.37082
3.03029	3.73382
3.0197	3.39408
3.00919	2.73781
2.99875	2.38008
2.98838	1.77418
2.97808	1.38127
2.96785	1.41166
2.95769	1.49169
2.9476	1.82005
2.93758	2.04478
2.92763	2.44426
2.91775	2.8168
2.90793	2.96091
2.89817	3.75577
2.88849	4.3204
2.87886	5.12388
2.8693	6.82493
2.85981	8.43332
2.85038	10.6067
2.841	12.9731
2.83169	15.8707
2.82245	18.8367
2.81326	21.9673
2.80413	25.2358
2.79506	28.4362
2.78605	32.0824
2.77709	35.4759
2.7682	39.2286
2.75936	43.1242
2.75057	46.7749
2.74185	50.9648
2.73318	53.2295
2.72456	56.4723
2.71599	57.0616
2.70748	58.0646
2.69903	58.3391
2.69062	58.6812
2.68227	58.8609
2.67397	59.1291
2.66572	60.054
2.65753	58.5063
2.64938	58.0161
2.64128	57.655
2.63323	57.5614
2.62523	57.598
2.61728	58.3318
2.60938	58.3031
2.60152	58.5803
2.59371	60.4274
2.58595	60.3831
2.57824	61.5564
2.57057	63.1009
2.56294	64.7692
2.55536	65.2757
2.54783	66.374
2.54034	66.9518
2.53289	67.6261
2.52549	67.9747
2.51813	68.1614
2.51082	68.9825
2.50354	70.1382
2.49631	70.994
2.48912	71.7893
2.48197	72.188
2.47486	72.2683
2.46779	72.4899
2.46077	72.346
2.45378	72.1749
2.44683	71.6746
2.43992	71.1256
2.43305	70.9776
2.42622	70.9811
2.41943	70.6129
2.41267	70.6276
2.40595	70.74
2.39928	71.765
2.39263	72.5415
2.38603	73.4495
2.37946	74.275
2.37292	74.9663
2.36642	75.5162
2.35996	75.7863
2.35353	76.1536
2.34714	76.2009
2.34078	76.2411
2.33446	75.8643
2.32817	75.2684
2.32191	74.1716
2.31569	73.2399
2.3095	72.914
2.30335	72.3235
2.29722	71.59
2.29113	71.1282
2.28507	70.7618
2.27905	70.9834
2.27305	71.7497
2.26709	72.1668
2.26116	72.1208
2.25526	72.1084
2.24939	72.824
2.24355	73.5563
2.23774	74.8656
2.23196	76.2516
2.22621	77.0947
2.22049	77.8193
2.21479	78.5939
2.20913	79.2027
2.2035	79.6625
2.19789	80.209
2.19232	80.7177
2.18677	81.2582
2.18125	81.5361
2.17576	81.7965
2.17029	82.1876
2.16486	82.3735
2.15945	82.9335
2.15406	83.0279
2.14871	83.0223
2.14338	83.6608
2.13808	83.5298
2.1328	83.9179
2.12755	83.841
2.12232	83.9454
2.11712	83.9057
2.11195	84.0659
2.1068	84.2969
2.10168	84.2801
2.09658	84.0708
2.0915	84.3942
2.08645	84.3686
2.08143	84.3247
2.07643	84.4722
2.07145	84.1539
2.06649	84.3856
2.06156	84.0321
2.05666	84.1131
2.05177	83.9674
2.04691	84.0991
2.04208	84.2558
2.03726	84.2446
2.03247	84.2021
2.0277	84.3771
2.02295	84.658
2.01823	84.8448
2.01353	84.937
2.00885	85.0221
2.00419	85.319
