Name: Celestite SrSO_4
Type: Mineral
Class: Sulfates
Particle Size: 125-500um
Sample No.: SO-5A
Owner: JPL
Origin: USA, Utah, Emery County.
Measurement: Hemispherical reflectance
X Units: Wavelength (micrometers)
Y Units: Reflectance (percent)
wavelength	value
2.5	82.0043
2.494	81.551
2.488	81.223
2.482	81.308
2.476	81.3193
2.47	81.6068
2.464	81.5142
2.458	81.7758
2.452	81.7974
2.446	82.0236
2.44	82.0903
2.434	82.0696
2.428	82.131
2.422	82.1278
2.416	82.2395
2.41	82.2908
2.404	82.3422
2.398	82.3807
2.392	82.5338
2.386	82.606
2.38	82.6869
2.374	82.7461
2.368	82.8454
2.362	82.9462
2.356	83.0967
2.35	83.1346
2.344	83.2014
2.338	83.1427
2.332	83.2395
2.326	83.0575
2.32	83.1244
2.314	83.1559
2.308	83.2152
2.302	83.1745
2.296	83.1897
2.29	83.1746
2.284	83.206
2.278	83.2441
2.272	83.2129
2.266	83.3163
2.26	83.2308
2.254	83.2931
2.248	83.4102
2.242	83.3504
2.236	83.3705
2.23	83.4127
2.224	83.5332
2.218	83.6832
2.212	83.7186
2.206	83.8779
2.2	83.9902
2.194	84.0731
2.188	84.1701
2.182	84.1461
2.176	84.2789
2.17	84.5108
2.164	84.6874
2.158	84.7901
2.152	84.8589
2.146	84.9512
2.14	84.8905
2.134	84.8539
2.128	84.663
2.122	84.4422
2.116	84.1923
2.11	84.0248
2.104	83.6333
2.098	83.5344
2.092	83.6703
2.086	83.7112
2.08	83.7961
2.074	83.8388
2.068	83.9814
2.062	84.0298
2.056	84.1081
2.05	84.1959
2.044	84.2336
2.038	84.2764
2.032	84.3081
2.026	84.3498
2.02	84.3144
2.014	84.2947
2.008	84.3682
2.002	84.3243
1.996	84.2395
1.99	84.1752
1.984	84.1151
1.978	84.1094
1.972	84.0625
1.966	83.9303
1.96	83.9385
1.954	83.8969
1.948	83.9669
1.942	83.8989
1.936	83.8993
1.93	84.0066
1.924	83.9503
1.918	84.0122
1.912	84.1271
1.906	84.3081
1.9	84.357
1.894	84.4724
1.888	84.5758
1.882	84.6385
1.876	84.7593
1.87	84.7915
1.864	84.8765
1.858	84.877
1.852	84.9587
1.846	84.9928
1.84	84.9515
1.834	84.8791
1.828	84.9087
1.822	84.9795
1.816	84.9296
1.81	84.9322
1.804	85.0208
1.798	85.0045
1.792	84.9438
1.786	84.9665
1.78	84.9338
1.774	84.9788
1.768	84.9255
1.762	84.8933
1.756	84.8863
1.75	84.9869
1.744	84.9123
1.738	85.008
1.732	84.9904
1.726	85.0372
1.72	84.9925
1.714	85.0022
1.708	85.0879
1.702	84.9628
1.696	84.956
1.69	84.9883
1.684	84.9627
1.678	85.0322
1.672	84.9282
1.666	84.9764
1.66	84.9041
1.654	84.9611
1.648	84.8484
1.642	84.9945
1.636	84.9422
1.63	84.9384
1.624	85.016
1.618	84.9134
1.612	84.9943
1.606	85.0078
1.6	84.9404
1.594	84.9482
1.588	84.9834
1.582	84.9346
1.576	84.9265
1.57	84.9845
1.564	84.9776
1.558	84.9322
1.552	84.9699
1.546	84.8878
1.54	84.873
1.534	84.8632
1.528	84.8819
1.522	84.8412
1.516	84.8998
1.51	84.829
1.504	84.9094
1.498	84.8243
1.492	84.7882
1.486	84.8194
1.48	84.7799
1.474	84.8348
1.468	84.8224
1.462	84.681
1.456	84.7798
1.45	84.7715
1.444	84.697
1.438	84.7707
1.432	84.6984
1.426	84.7633
1.42	84.7723
1.414	84.7516
1.408	84.7915
1.402	84.8088
1.396	84.8294
1.39	84.8175
1.384	84.8317
1.378	84.8415
1.372	84.7715
1.366	84.7654
1.36	84.8499
1.354	84.7703
1.348	84.7664
1.342	84.8241
1.336	84.7929
1.33	84.7806
1.324	84.818
1.318	84.7113
1.312	84.7047
1.306	84.7454
1.3	84.6463
1.294	84.7304
1.288	84.7316
1.282	84.7636
1.276	84.7243
1.27	84.5985
1.264	84.6712
1.258	84.6423
1.252	84.6547
1.246	84.5963
1.24	84.6491
1.234	84.6096
1.228	84.6914
1.222	84.5985
1.216	84.5679
1.21	84.6185
1.204	84.5679
1.198	84.6145
1.192	84.5982
1.186	84.596
1.18	84.5979
1.174	84.626
1.168	84.5375
1.162	84.5978
1.156	84.578
1.15	84.6043
1.144	84.56
1.138	84.4963
1.132	84.5117
1.126	84.6214
1.12	84.5638
1.114	84.5607
1.108	84.6421
1.102	84.55
1.096	84.5965
1.09	84.5381
1.084	84.5097
1.078	84.5218
1.072	84.5739
1.066	84.5159
1.06	84.4798
1.054	84.4327
1.048	84.4412
1.042	84.5349
1.036	84.483
1.03	84.4805
1.024	84.5309
1.018	84.5101
1.012	84.4635
1.006	84.4577
1	84.5116
0.994	84.5095
0.988	84.4748
0.982	84.4652
0.976	84.4166
0.97	84.481
0.964	84.4191
0.958	84.4226
0.952	84.4779
0.946	84.4085
0.94	84.4361
0.934	84.4003
0.928	84.4581
0.922	84.3971
0.916	84.4204
0.91	84.4349
0.904	84.3072
0.898	84.2989
0.892	84.3187
0.886	84.3332
0.88	84.2528
0.874	84.264
0.868	84.2057
0.862	84.1914
0.856	84.0443
0.85	84.063
0.844	84.0861
0.838	84.0304
0.832	83.9111
0.826	83.9021
0.82	83.8626
0.814	83.7666
0.808	83.6835
0.802	83.5404
0.796	83.3395
0.79	83.1771
0.784	83.0544
0.778	82.8949
0.772	82.7431
0.766	82.532
0.76	82.4077
0.754	82.2674
0.748	82.0695
0.742	81.8985
0.736	81.7006
0.73	81.5595
0.724	81.3857
0.718	81.1782
0.712	80.9824
0.706	80.7895
0.7	80.6133
0.694	80.3986
0.688	80.1723
0.682	79.9263
0.676	79.6876
0.67	79.4118
0.664	79.1207
0.658	78.8525
0.652	78.5546
0.646	78.2846
0.64	78.0508
0.634	77.8456
0.628	77.6758
0.622	77.5484
0.616	77.4797
0.61	77.4484
0.604	77.4636
0.598	77.5588
0.592	77.6943
0.586	77.7601
0.58	77.8845
0.574	77.9822
0.568	78.1223
0.562	78.2782
0.556	78.3849
0.55	78.5047
0.544	78.6283
0.538	78.7706
0.532	78.8758
0.526	78.9693
0.52	79.0514
0.514	79.1178
0.508	79.1525
0.502	79.1205
0.496	79.0709
0.49	79.0221
0.484	78.89
0.478	78.8801
0.472	78.8474
0.466	78.7196
0.46	78.586
0.454	78.4815
0.448	78.2515
0.442	78.0369
0.436	77.8471
0.43	77.6256
0.424	77.3839
0.418	77.1924
0.412	76.9841
0.406	76.8211
0.4	76.6406
