Name: Antlerite Cu_3(SO_4)(OH)_4
Type: Mineral
Class: Sulfates
Particle Size: 0-45um
Sample No.: SO-11A
Owner: JPL
Origin: USA, Arizona, Greenlee County, Morenci.
Measurement: Hemispherical reflectance
X Units: Wavelength (micrometers)
Y Units: Reflectance (percent)
wavelength	value
2.5	43.2688
2.494	44.9916
2.488	46.1145
2.482	46.4832
2.476	45.8028
2.47	44.8438
2.464	43.5774
2.458	42.2532
2.452	41.1433
2.446	40.9275
2.44	41.8831
2.434	43.7001
2.428	45.4132
2.422	46.4743
2.416	47.0588
2.41	47.268
2.404	46.715
2.398	45.3023
2.392	43.47
2.386	41.9449
2.38	40.4321
2.374	38.1281
2.368	34.6575
2.362	31.066
2.356	28.4073
2.35	27.0438
2.344	27.3742
2.338	28.8878
2.332	30.5483
2.326	31.0645
2.32	29.5836
2.314	26.526
2.308	24.2712
2.302	24.9045
2.296	28.632
2.29	34.0412
2.284	38.9997
2.278	43.0602
2.272	45.8476
2.266	47.2461
2.26	46.9796
2.254	44.6679
2.248	42.3882
2.242	42.5012
2.236	44.9356
2.23	48.1278
2.224	51.3377
2.218	53.9435
2.212	55.6488
2.206	56.486
2.2	56.8464
2.194	56.5014
2.188	56.6513
2.182	57.7871
2.176	58.6671
2.17	59.0356
2.164	58.8217
2.158	57.6092
2.152	56.5312
2.146	57.1463
2.14	58.5267
2.134	59.111
2.128	59.5782
2.122	59.6109
2.116	59.0378
2.11	59.0804
2.104	60.1673
2.098	60.9706
2.092	61.3379
2.086	61.5103
2.08	61.6073
2.074	61.7506
2.068	61.9927
2.062	62.1657
2.056	62.3573
2.05	62.5071
2.044	62.5608
2.038	62.5755
2.032	62.486
2.026	62.4128
2.02	62.4269
2.014	62.325
2.008	62.3477
2.002	62.2887
1.996	62.2387
1.99	61.9555
1.984	61.8208
1.978	61.4716
1.972	60.9419
1.966	60.4487
1.96	60.4704
1.954	60.8787
1.948	61.1219
1.942	61.3987
1.936	61.6583
1.93	61.7482
1.924	61.8058
1.918	61.8672
1.912	62.0375
1.906	62.3983
1.9	62.7995
1.894	63.2203
1.888	63.3899
1.882	63.4746
1.876	63.6287
1.87	63.8714
1.864	64.0797
1.858	64.1129
1.852	64.1153
1.846	64.1571
1.84	64.2671
1.834	64.3147
1.828	64.2683
1.822	64.3624
1.816	64.3768
1.81	64.4099
1.804	64.4139
1.798	64.4229
1.792	64.402
1.786	64.4947
1.78	64.3275
1.774	64.2358
1.768	64.2653
1.762	64.2405
1.756	64.2152
1.75	64.2112
1.744	64.1663
1.738	64.1469
1.732	64.1028
1.726	64.0955
1.72	64.0289
1.714	64.0241
1.708	63.9917
1.702	64.0162
1.696	63.9683
1.69	63.9588
1.684	63.8411
1.678	63.9097
1.672	63.818
1.666	63.8162
1.66	63.7265
1.654	63.7158
1.648	63.7458
1.642	63.622
1.636	63.4378
1.63	63.4157
1.624	63.2312
1.618	63.2502
1.612	63.0844
1.606	63.0587
1.6	62.9271
1.594	62.7751
1.588	62.5937
1.582	62.4281
1.576	62.2798
1.57	62.2061
1.564	61.9834
1.558	61.7805
1.552	61.5305
1.546	61.3337
1.54	61.1078
1.534	60.8312
1.528	60.5831
1.522	60.23
1.516	59.7865
1.51	59.2973
1.504	58.7584
1.498	58.1603
1.492	57.2647
1.486	55.4906
1.48	49.8018
1.474	46.1794
1.468	52.0058
1.462	53.9135
1.456	54.8174
1.45	54.9654
1.444	54.117
1.438	49.9073
1.432	37.4255
1.426	52.5861
1.42	52.7108
1.414	50.5769
1.408	52.6055
1.402	52.4979
1.396	51.9176
1.39	52.0199
1.384	51.4579
1.378	51.0093
1.372	50.6372
1.366	50.1162
1.36	49.4896
1.354	48.8914
1.348	48.2408
1.342	47.734
1.336	47.0867
1.33	46.408
1.324	45.7477
1.318	45.0276
1.312	44.2491
1.306	43.6897
1.3	43.013
1.294	42.2561
1.288	41.6304
1.282	40.8609
1.276	40.2017
1.27	39.4879
1.264	38.813
1.258	38.0471
1.252	37.357
1.246	36.6337
1.24	35.9053
1.234	35.2498
1.228	34.4819
1.222	33.8268
1.216	33.0781
1.21	32.4085
1.204	31.7627
1.198	31.0974
1.192	30.4586
1.186	29.8595
1.18	29.1228
1.174	28.57
1.168	27.9263
1.162	27.3875
1.156	26.8271
1.15	26.3085
1.144	25.6645
1.138	25.2089
1.132	24.6988
1.126	24.1838
1.12	23.7483
1.114	23.1443
1.108	22.7279
1.102	22.2641
1.096	21.8441
1.09	21.3784
1.084	20.8996
1.078	20.544
1.072	20.2465
1.066	19.7619
1.06	19.3628
1.054	19.0438
1.048	18.7053
1.042	18.2715
1.036	17.8008
1.03	17.4857
1.024	17.1173
1.018	16.7806
1.012	16.4731
1.006	16.0744
1	15.7732
0.994	15.4804
0.988	15.057
0.982	14.7655
0.976	14.4118
0.97	14.2391
0.964	13.939
0.958	13.7835
0.952	13.4946
0.946	13.3024
0.94	13.1306
0.934	13.0359
0.928	12.9342
0.922	12.7499
0.916	12.6717
0.91	12.6322
0.904	12.645
0.898	12.6061
0.892	12.613
0.886	12.6104
0.88	12.7202
0.874	12.7854
0.868	12.8033
0.862	12.8811
0.856	13.0446
0.85	13.1944
0.844	13.2995
0.838	13.4303
0.832	13.5439
0.826	13.6123
0.82	13.7063
0.814	13.7313
0.808	13.7506
0.802	13.739
0.796	13.6774
0.79	13.582
0.784	13.4692
0.778	13.2975
0.772	13.1289
0.766	12.9287
0.76	12.7232
0.754	12.5089
0.748	12.2907
0.742	12.0942
0.736	11.9059
0.73	11.7351
0.724	11.6012
0.718	11.4963
0.712	11.4225
0.706	11.3997
0.7	11.4298
0.694	11.503
0.688	11.6375
0.682	11.8416
0.676	12.1124
0.67	12.4628
0.664	12.9041
0.658	13.4465
0.652	14.1024
0.646	14.8815
0.64	15.8086
0.634	16.8995
0.628	18.1307
0.622	19.6128
0.616	21.3229
0.61	23.2723
0.604	25.479
0.598	27.9456
0.592	30.6439
0.586	33.479
0.58	36.458
0.574	39.5296
0.568	42.5395
0.562	45.3848
0.556	47.9921
0.55	50.2175
0.544	51.9762
0.538	53.2843
0.532	54.0968
0.526	54.4406
0.52	54.3587
0.514	53.8366
0.508	52.9532
0.502	51.7196
0.496	50.2013
0.49	48.4495
0.484	46.52
0.478	44.6992
0.472	42.8436
0.466	41.0453
0.46	39.3177
0.454	37.6667
0.448	36.1034
0.442	34.5279
0.436	33.0233
0.43	31.509
0.424	30.1069
0.418	28.8485
0.412	27.739
0.406	26.7718
0.4	25.8723
