Name: Howlite Ca_2B_5SiO_9(OH)_5
Type: Mineral
Class: Borates
Particle Size: 45-125um
Sample No.: B-5A
Owner: JPL
Origin: USA, California, San Gabriel Mountains, Tick Canyon.
Measurement: Hemispherical reflectance
X Units: Wavelength (micrometers)
Y Units: Reflectance (percent)
wavelength	value
2.5	25.8624
2.494	24.1725
2.488	22.8083
2.482	21.1671
2.476	19.2673
2.47	17.2774
2.464	15.8932
2.458	15.1672
2.452	15.6453
2.446	16.82
2.44	18.136
2.434	19.2704
2.428	20.4831
2.422	21.9826
2.416	24.1144
2.41	26.6721
2.404	29.3509
2.398	31.7708
2.392	33.9577
2.386	35.9705
2.38	37.7423
2.374	39.0777
2.368	39.9269
2.362	40.4215
2.356	40.8516
2.35	41.4752
2.344	42.2767
2.338	42.7
2.332	42.5353
2.326	41.6761
2.32	40.6925
2.314	39.8052
2.308	39.0054
2.302	38.4482
2.296	38.2858
2.29	38.5426
2.284	38.7689
2.278	38.6514
2.272	38.0236
2.266	36.8226
2.26	35.2855
2.254	33.7346
2.248	32.5527
2.242	32.1429
2.236	32.3018
2.23	33.1391
2.224	34.081
2.218	34.9409
2.212	35.5228
2.206	35.8483
2.2	35.944
2.194	35.2749
2.188	33.8632
2.182	32.198
2.176	30.4597
2.17	28.5482
2.164	27.2784
2.158	27.3345
2.152	28.4346
2.146	29.4589
2.14	28.9842
2.134	27.34
2.128	26.5327
2.122	28.2043
2.116	31.1807
2.11	33.7531
2.104	35.5425
2.098	37.408
2.092	40.298
2.086	43.6781
2.08	47.3672
2.074	51.4463
2.068	55.0823
2.062	57.4436
2.056	59.0407
2.05	60.0301
2.044	60.2972
2.038	59.7872
2.032	58.8715
2.026	59.4679
2.02	61.2101
2.014	61.7717
2.008	61.8818
2.002	62.705
1.996	63.4801
1.99	64.1854
1.984	64.9762
1.978	65.399
1.972	65.5839
1.966	65.8774
1.96	66.0927
1.954	66.3282
1.948	66.7258
1.942	66.8857
1.936	67.1443
1.93	67.4049
1.924	67.5897
1.918	67.8989
1.912	68.3075
1.906	68.6539
1.9	68.8902
1.894	69.0562
1.888	69.2563
1.882	69.475
1.876	69.7049
1.87	69.9461
1.864	70.2148
1.858	70.3553
1.852	70.4703
1.846	70.6087
1.84	70.5691
1.834	70.5825
1.828	70.524
1.822	70.4668
1.816	70.447
1.81	70.3639
1.804	70.3568
1.798	70.3629
1.792	70.2584
1.786	70.1546
1.78	69.9563
1.774	69.7994
1.768	69.5894
1.762	69.513
1.756	69.2833
1.75	69.2034
1.744	68.9468
1.738	68.6353
1.732	68.3111
1.726	68.0313
1.72	67.7229
1.714	67.5069
1.708	67.3045
1.702	67.0622
1.696	66.8223
1.69	66.5681
1.684	66.3555
1.678	66.1006
1.672	65.7987
1.666	65.5275
1.66	65.3058
1.654	65.0904
1.648	65.0394
1.642	65.0589
1.636	65.005
1.63	65.129
1.624	65.3488
1.618	65.6653
1.612	65.9933
1.606	66.4002
1.6	66.8809
1.594	67.3523
1.588	68.0873
1.582	68.7086
1.576	69.2697
1.57	69.7943
1.564	70.1992
1.558	70.4092
1.552	70.4949
1.546	70.4302
1.54	69.8629
1.534	68.6141
1.528	66.4062
1.522	64.49
1.516	64.6163
1.51	65.4396
1.504	65.9236
1.498	66.1381
1.492	66.6405
1.486	66.3383
1.48	65.4667
1.474	64.6392
1.468	65.0765
1.462	65.2101
1.456	64.6996
1.45	58.3821
1.444	50.0878
1.438	58.1672
1.432	54.5442
1.426	63.4178
1.42	66.0044
1.414	66.5294
1.408	67.9914
1.402	69.9602
1.396	72.6028
1.39	75.0821
1.384	76.7489
1.378	77.9492
1.372	78.8345
1.366	79.4348
1.36	79.4318
1.354	78.8045
1.348	78.1935
1.342	78.2645
1.336	77.5418
1.33	80.0678
1.324	81.2591
1.318	81.8175
1.312	82.3777
1.306	82.7094
1.3	82.9095
1.294	83.0591
1.288	83.0485
1.282	82.9039
1.276	82.8556
1.27	82.8395
1.264	82.6609
1.258	82.5965
1.252	82.4811
1.246	82.5224
1.24	82.4848
1.234	82.6811
1.228	83.064
1.222	83.4423
1.216	83.7288
1.21	83.9224
1.204	84.0289
1.198	84.0961
1.192	84.1586
1.186	84.3025
1.18	84.2608
1.174	84.357
1.168	84.4005
1.162	84.3837
1.156	84.4879
1.15	84.5499
1.144	84.5522
1.138	84.5438
1.132	84.5437
1.126	84.5795
1.12	84.4877
1.114	84.555
1.108	84.5431
1.102	84.4726
1.096	84.6275
1.09	84.6325
1.084	84.5087
1.078	84.4815
1.072	84.642
1.066	84.6301
1.06	84.596
1.054	84.6437
1.048	84.4897
1.042	84.5675
1.036	84.5251
1.03	84.5277
1.024	84.5618
1.018	84.4805
1.012	84.4344
1.006	84.2596
1	84.0345
0.994	83.5438
0.988	83.2032
0.982	83.1213
0.976	83.3879
0.97	83.8169
0.964	84.0455
0.958	83.9721
0.952	84.3329
0.946	84.5544
0.94	84.5595
0.934	84.6535
0.928	84.6914
0.922	84.8217
0.916	84.8298
0.91	84.9361
0.904	84.9014
0.898	84.9024
0.892	84.8321
0.886	84.9485
0.88	84.8807
0.874	84.8955
0.868	84.9476
0.862	85.0184
0.856	85.0363
0.85	85.1598
0.844	85.1995
0.838	85.205
0.832	85.2666
0.826	85.2648
0.82	85.2955
0.814	85.2198
0.808	85.2963
0.802	85.3381
0.796	85.1957
0.79	85.2654
0.784	85.2949
0.778	85.2849
0.772	85.1868
0.766	85.2551
0.76	85.1167
0.754	85.1807
0.748	85.289
0.742	85.3022
0.736	85.3422
0.73	85.2407
0.724	85.3085
0.718	85.3258
0.712	85.3233
0.706	85.3765
0.7	85.3291
0.694	85.3961
0.688	85.3561
0.682	85.3355
0.676	85.346
0.67	85.3735
0.664	85.3588
0.658	85.3728
0.652	85.3603
0.646	85.3573
0.64	85.364
0.634	85.3424
0.628	85.3264
0.622	85.3056
0.616	85.3146
0.61	85.2869
0.604	85.2659
0.598	85.2978
0.592	85.3115
0.586	85.2632
0.58	85.2384
0.574	85.2017
0.568	85.1604
0.562	85.0786
0.556	84.978
0.55	84.9275
0.544	84.8218
0.538	84.7236
0.532	84.593
0.526	84.4441
0.52	84.3062
0.514	84.1037
0.508	83.905
0.502	83.651
0.496	83.3843
0.49	83.109
0.484	82.7942
0.478	82.5208
0.472	82.227
0.466	81.9362
0.46	81.6346
0.454	81.3299
0.448	81.0315
0.442	80.7295
0.436	80.4367
0.43	80.1487
0.424	79.8278
0.418	79.5295
0.412	79.1683
0.406	78.8346
0.4	78.492
