Name: Quartz SiO_2
Type: Mineral
Class: Silicates
Subclass: Tectosilicates
Particle Size: 125-500um
Sample No.: TS-1A
Owner: JPL
Wavelength Range: VNIR-SWIR
Origin: USA, Arkansas, Montgomery County, Mount Ida
Description: Rock crystal.
Measurement: Hemispherical reflectance
X Units: Wavelength (micrometers)
Y Units: Reflectance (percent)
wavelength	value
0.4	79.53
0.403	79.61
0.406	79.51
0.409	79.73
0.412	79.68
0.415	79.69
0.418	79.61
0.421	79.66
0.424	79.66
0.427	79.71
0.43	79.8
0.433	79.91
0.436	79.73
0.439	79.88
0.442	80.02
0.445	79.9
0.448	79.92
0.451	80.03
0.454	80.07
0.457	80.06
0.46	80.28
0.463	80.2
0.466	80.07
0.469	80.3
0.472	80.31
0.475	80.24
0.478	80.42
0.481	80.31
0.484	80.4
0.487	80.33
0.49	80.43
0.493	80.37
0.496	80.5
0.499	80.59
0.502	80.45
0.505	80.57
0.508	80.68
0.511	80.66
0.514	80.78
0.517	80.81
0.52	80.75
0.523	80.88
0.526	80.93
0.529	80.82
0.532	80.84
0.535	80.81
0.538	80.97
0.541	81.06
0.544	81.02
0.547	80.97
0.55	81.27
0.553	81.26
0.556	81.27
0.559	81.27
0.562	81.81
0.565	81.69
0.568	81.6
0.571	81.53
0.574	81.27
0.577	81.35
0.58	81.36
0.583	81.26
0.586	81.23
0.589	81.46
0.592	81.35
0.595	81.47
0.598	81.56
0.601	81.58
0.604	81.68
0.607	81.48
0.61	81.51
0.613	81.5
0.616	81.52
0.619	81.31
0.622	81.5
0.625	81.57
0.628	81.44
0.631	81.54
0.634	81.52
0.637	81.5
0.64	81.55
0.643	81.55
0.646	81.41
0.649	81.57
0.652	81.57
0.655	81.49
0.658	81.69
0.661	81.63
0.664	81.65
0.667	81.67
0.67	81.75
0.673	81.65
0.676	81.77
0.679	81.74
0.682	81.81
0.685	82.05
0.688	81.9
0.691	82.03
0.694	82.08
0.697	81.97
0.7	82
0.703	81.88
0.706	82.04
0.709	81.89
0.712	81.9
0.715	82.04
0.718	82
0.721	81.94
0.724	82.06
0.727	82.18
0.73	82.24
0.733	82.1
0.736	82.29
0.739	82.17
0.742	82.21
0.745	82.3
0.748	82.19
0.751	82.01
0.754	82.29
0.757	82.19
0.76	82.18
0.763	82.37
0.766	82.26
0.769	82.26
0.772	82.39
0.775	82.39
0.778	82.26
0.781	82.5
0.784	82.41
0.787	82.44
0.79	82.58
0.793	82.5
0.796	82.47
0.799	82.6
0.808	82.75
0.82	82.81
0.832	82.81
0.844	82.99
0.856	82.94
0.868	83.15
0.88	83.19
0.892	83.25
0.904	83.12
0.916	83.19
0.928	83.25
0.94	83.41
0.952	83.46
0.964	83.5
0.976	83.43
0.988	83.45
1	83.59
1.012	83.49
1.024	83.6
1.036	83.7
1.048	83.77
1.06	83.76
1.072	83.82
1.084	83.74
1.096	83.82
1.108	83.81
1.12	83.88
1.132	83.99
1.144	83.85
1.156	83.89
1.168	83.9
1.18	83.92
1.192	83.97
1.204	83.91
1.216	83.86
1.228	83.95
1.24	83.95
1.252	84.06
1.264	84.07
1.276	83.96
1.288	83.97
1.3	83.96
1.312	84.07
1.324	83.97
1.336	83.9
1.348	83.86
1.36	83.85
1.372	83.87
1.384	83.92
1.396	83.98
1.408	83.82
1.42	83.71
1.432	83.82
1.444	83.73
1.456	83.86
1.468	83.91
1.48	83.94
1.492	84
1.504	83.93
1.516	83.93
1.528	83.96
1.54	84.02
1.552	84.1
1.564	84.1
1.576	84.18
1.588	84.24
1.6	84.28
1.612	84.3
1.624	84.29
1.636	84.37
1.648	84.25
1.66	84.27
1.672	84.37
1.684	84.43
1.696	84.49
1.708	84.58
1.72	84.61
1.732	84.52
1.744	84.48
1.756	84.52
1.768	84.44
1.78	84.34
1.792	84.38
1.804	84.45
1.816	84.47
1.828	84.48
1.84	84.43
1.852	84.43
1.864	84.36
1.876	84.17
1.888	83.83
1.9	83.6
1.912	83.51
1.924	83.46
1.936	83.57
1.948	83.57
1.96	83.73
1.972	83.73
1.984	84
1.996	84.35
2.008	84.36
2.02	84.52
2.032	84.57
2.044	84.75
2.056	84.84
2.068	84.85
2.08	84.9
2.092	85
2.104	85.26
2.116	85.41
2.128	85.44
2.14	85.28
2.152	84.99
2.164	84.84
2.176	84.62
2.188	84.45
2.2	84.39
2.212	84.38
2.224	84.56
2.236	84.67
2.248	84.73
2.26	84.75
2.272	84.72
2.284	84.77
2.296	84.9
2.308	85.1
2.32	85.23
2.332	85.2
2.344	85.02
2.356	85.03
2.368	84.89
2.38	84.98
2.392	84.83
2.404	84.72
2.416	84.66
2.428	84.58
2.44	84.51
2.452	84.55
2.464	84.29
2.476	84.01
2.488	84.2
2.5	84.41
