Name: Gold plate
Type: Manmade materials
Class: Reflectance target
Particle Size: Solid
Sample No.: 001682
Owner: JPL
Origin: Labsphere, P.O. Box 70, Shaker Street, North Sutton, NH 03260
Description: Measurement made at left center. Field Gold.
Measurement: Hemispherical Reflectance
X Units: Wavelength (micrometers)
Y Units: Reflectence (percent)
wavelength	value
15.3853	91.8694
15.1161	91.9921
14.8563	91.9523
14.6052	91.9434
14.3624	91.9669
14.1276	92.0176
13.9004	92.1376
13.6803	92.4266
13.4671	92.4671
13.2604	92.4077
13.06	92.4053
12.8656	92.1183
12.6769	92.3548
12.4936	92.2349
12.3155	92.6557
12.1425	92.8585
11.9742	92.9829
11.8106	93.0045
11.6513	92.8676
11.4963	92.2331
11.3454	92.2368
11.1983	92.3221
11.0551	92.0015
10.9154	91.561
10.7793	91.6432
10.6465	91.4872
10.5169	91.2521
10.3904	90.68
10.267	90.1268
10.1464	89.4892
10.0287	88.9613
9.91364	88.3498
9.80119	88.3039
9.69128	88.2105
9.5838	88.3204
9.47867	88.5339
9.37583	89.2291
9.27519	89.5939
9.17669	89.7119
9.08027	89.7742
8.98585	89.9582
8.89337	90.4818
8.80277	90.8683
8.714	91.1146
8.62701	91.2865
8.54174	91.7287
8.45813	91.8692
8.37614	92.4021
8.29573	92.5974
8.21685	92.7392
8.13946	92.9761
8.0635	92.9286
7.98896	92.8687
7.91578	93.0086
7.84392	92.9866
7.77337	92.9833
7.70406	92.9676
7.63598	92.8053
7.5691	92.7244
7.50338	92.6402
7.43879	92.5142
7.37529	92.3489
7.31288	92.1323
7.25152	92.1548
7.19117	91.9332
7.13182	91.8377
7.07344	91.7131
7.01601	91.7295
6.95951	91.8141
6.90391	91.8651
6.84918	91.96
6.79532	92.225
6.74231	92.4371
6.69011	92.6252
6.63871	93.0374
6.5881	92.9264
6.53825	92.8294
6.48915	93.0067
6.44079	92.7391
6.39314	92.6608
6.34618	92.7203
6.29992	92.3773
6.25432	92.3945
6.20938	92.2031
6.16508	92.1755
6.12141	92.3475
6.07835	92.3654
6.0359	92.4586
5.99403	92.7961
5.95274	92.8549
5.91201	93.1118
5.87184	93.4672
5.83221	93.5341
5.79311	93.6009
5.75453	93.6497
5.71646	93.9343
5.6789	94.1146
5.64182	94.3735
5.60522	94.2742
5.5691	94.0935
5.53344	94.3502
5.49823	94.2826
5.46347	94.4665
5.42914	94.4928
5.39525	94.4637
5.36177	94.426
5.32871	94.4467
5.29605	94.4906
5.26379	94.4242
5.23192	94.5395
5.20044	94.5173
5.16933	94.5735
5.13859	94.5247
5.10821	94.5134
5.07819	94.5443
5.04852	94.542
5.0192	94.5315
4.99021	94.5187
4.96156	94.6048
4.93324	94.5468
4.90524	94.5823
4.87755	94.578
4.85017	94.4893
4.8231	94.546
4.79633	94.5499
4.76986	94.5052
4.74367	94.5093
4.71777	94.5276
4.69216	94.4532
4.66682	94.4939
4.64175	94.4921
4.61695	94.4483
4.59241	94.4514
4.56814	94.5526
4.54411	94.4967
4.52034	94.47
4.49682	94.4024
4.47354	94.4319
4.4505	94.3669
4.4277	94.3187
4.40513	94.3213
4.38278	94.4116
4.36067	94.2899
4.33877	94.1107
4.3171	93.2318
4.29564	91.7452
4.27439	91.1944
4.25335	92.7953
4.23252	90.0103
4.21189	92.573
4.19146	94.3244
4.17123	94.2047
4.15119	94.2635
4.13134	94.2315
4.11168	94.1658
4.09221	94.1282
4.07292	94.1789
4.05382	94.0952
4.03489	94.1694
4.01614	94.0567
3.99756	93.9316
3.97915	93.8574
3.96091	93.7425
3.94284	93.8493
3.92493	93.7999
3.90718	93.9003
3.8896	93.8813
3.87217	93.8999
3.8549	93.7484
3.83777	93.8752
3.82081	93.8343
3.80399	93.8439
3.78731	93.7356
3.77079	93.767
3.7544	93.6761
3.73816	93.7044
3.72206	93.6673
3.7061	93.6222
3.69027	93.6106
3.67458	93.5776
3.65902	93.4985
3.64359	93.5616
3.6283	93.5542
3.61312	93.4386
3.59808	93.452
3.58316	93.322
3.56836	93.2866
3.55369	93.2192
3.53914	93.0524
3.5247	93.0145
3.51038	92.3207
3.49618	92.3556
3.48209	92.4679
3.46812	92.3297
3.45425	92.3043
3.4405	91.9591
3.42686	91.5679
3.41332	91.7221
3.39989	92.0106
3.38657	92.0427
3.37335	92.2662
3.36023	92.4083
3.34721	92.4823
3.3343	92.6375
3.32148	92.6872
3.30876	92.5379
3.29614	92.4838
3.28362	92.4756
3.27119	92.5469
3.25885	92.3516
3.24661	92.2284
3.23446	92.2305
3.22239	92.1932
3.21042	92.0523
3.19854	92.0688
3.18674	91.9971
3.17504	91.9984
3.16341	91.7975
3.15187	91.6201
3.14042	91.6638
3.12905	91.491
3.11776	91.5076
3.10655	91.2573
3.09542	91.2945
3.08437	91.1715
3.0734	91.0578
3.06251	90.8256
3.0517	91.0262
3.04096	90.7908
3.03029	90.8649
3.0197	90.7068
3.00919	90.9593
2.99875	90.7075
2.98838	90.7622
2.97808	90.6823
2.96785	90.8028
2.95769	90.734
2.9476	90.6668
2.93758	90.6744
2.92763	90.7726
2.91775	90.7342
2.90793	90.9301
2.89817	90.9552
2.88849	91.0738
2.87886	91.1034
2.8693	91.2248
2.85981	91.254
2.85038	91.2688
2.841	91.3676
2.83169	91.4463
2.82245	91.407
2.81326	91.6276
2.80413	91.5779
2.79506	91.2936
2.78605	91.6223
2.77709	91.7846
2.7682	91.5677
2.75936	91.2793
2.75057	91.825
2.74185	91.8758
2.73318	91.9927
2.72456	92.5064
2.71599	92.4485
2.70748	92.4465
2.69903	92.6183
2.69062	93.0894
2.68227	93.324
2.67397	93.4239
2.66572	93.6964
2.65753	93.4844
2.64938	93.4956
2.64128	93.5634
2.63323	93.3392
2.62523	93.4377
2.61728	93.5403
2.60938	93.2987
2.60152	93.4666
2.59371	93.6333
2.58595	93.5664
2.57824	93.4434
2.57057	93.2764
2.56294	93.5489
2.55536	93.3912
2.54783	93.4415
2.54034	93.2919
2.53289	93.4032
2.52549	93.3526
2.51813	93.1821
2.51082	93.0443
2.50354	93.2603
2.49631	93.2611
2.48912	93.1313
2.48197	93.163
2.47486	93.1274
2.46779	93.2772
2.46077	93.223
2.45378	92.9463
2.44683	93.2847
2.43992	93.056
2.43305	93.258
2.42622	93.1923
2.41943	93.303
2.41267	93.1599
2.40595	93.3033
2.39928	93.0928
2.39263	92.9918
2.38603	93.0903
2.37946	93.142
2.37292	93.2024
2.36642	93.2506
2.35996	93.1056
2.35353	93.0412
2.34714	93.179
2.34078	93.0728
2.33446	92.8563
2.32817	92.9187
2.32191	92.9743
2.31569	92.9942
2.3095	92.9057
2.30335	93.0674
2.29722	92.9205
2.29113	93.0513
2.28507	92.9629
2.27905	92.6774
2.27305	92.8084
2.26709	92.783
2.26116	92.9469
2.25526	92.976
2.24939	92.8912
2.24355	92.8864
2.23774	92.8841
2.23196	92.8452
2.22621	92.9594
2.22049	92.9374
2.21479	92.6435
2.20913	92.8838
2.2035	92.7691
2.19789	92.6132
2.19232	92.8669
2.18677	92.6285
2.18125	92.9315
2.17576	92.884
2.17029	92.5553
2.16486	92.6471
2.15945	92.6942
2.15406	92.7488
2.14871	92.8839
2.14338	92.6837
2.13808	92.7297
2.1328	92.5554
2.12755	92.6342
2.12232	92.9378
2.11712	92.5405
2.11195	92.695
2.1068	92.5305
2.10168	92.648
2.09658	92.527
2.0915	92.7316
2.08645	92.4494
2.08143	92.5719
2.07643	92.5915
2.07145	92.5101
2.06649	92.8909
2.06156	92.74
2.05666	92.3233
2.05177	92.5362
2.04691	92.5321
2.04208	92.284
2.03726	92.5179
2.03247	92.4829
2.0277	92.688
2.02295	92.3648
2.01823	92.3627
2.01353	92.4467
2.00885	92.5187
2.00419	92.2473
