Name: Witherite BaCO_3
Type: Mineral
Class: Carbonates
Particle Size: 125-500um
Sample No.: C-2A
Owner: JPL
Origin: United Kingdom, England.
Measurement: Hemispherical reflectance
X Units: Wavelength (micrometers)
Y Units: Reflectance (percent)
wavelength	value
2.5	63.3107
2.494	65.4284
2.488	66.9687
2.482	68.1454
2.476	68.7661
2.47	69.5289
2.464	70.0561
2.458	70.4762
2.452	70.6462
2.446	70.9448
2.44	70.9729
2.434	70.5173
2.428	69.4591
2.422	67.6764
2.416	64.8126
2.41	60.4227
2.404	54.7117
2.398	48.4017
2.392	43.6056
2.386	42.057
2.38	44.2073
2.374	48.4246
2.368	52.3195
2.362	54.982
2.356	56.6591
2.35	57.6184
2.344	58.3555
2.338	59.0769
2.332	60.2315
2.326	61.7746
2.32	63.547
2.314	65.5437
2.308	67.409
2.302	69.2554
2.296	70.7983
2.29	72.4185
2.284	73.8059
2.278	75.0204
2.272	76.2398
2.266	77.303
2.26	78.5072
2.254	79.5305
2.248	80.3232
2.242	81.0499
2.236	81.623
2.23	81.6957
2.224	80.8213
2.218	78.6646
2.212	76.373
2.206	75.7597
2.2	77.7505
2.194	80.6338
2.188	82.3756
2.182	83.3809
2.176	84.1243
2.17	84.4708
2.164	84.8249
2.158	85.1598
2.152	85.5308
2.146	86.0689
2.14	86.5413
2.134	86.7333
2.128	86.8172
2.122	86.6047
2.116	86.4631
2.11	86.1494
2.104	85.8786
2.098	85.6493
2.092	85.5996
2.086	85.6298
2.08	85.4589
2.074	85.2208
2.068	84.7638
2.062	83.6736
2.056	81.1252
2.05	77.28
2.044	76.5779
2.038	79.1393
2.032	81.0076
2.026	82.2159
2.02	82.6831
2.014	82.8594
2.008	82.9498
2.002	83.2594
1.996	83.8128
1.99	84.1779
1.984	84.4152
1.978	84.3562
1.972	84.1706
1.966	83.9717
1.96	83.844
1.954	83.5291
1.948	83.4283
1.942	83.0518
1.936	82.4647
1.93	81.1818
1.924	78.7721
1.918	77.111
1.912	78.5679
1.906	80.8896
1.9	82.6532
1.894	83.6464
1.888	84.2812
1.882	84.7803
1.876	85.2084
1.87	86.0309
1.864	86.7046
1.858	87.1993
1.852	87.5323
1.846	87.7059
1.84	87.8673
1.834	88.0696
1.828	88.1542
1.822	88.1361
1.816	88.1504
1.81	87.9431
1.804	87.3181
1.798	86.8288
1.792	87.1855
1.786	87.2959
1.78	87.2935
1.774	87.2947
1.768	87.2471
1.762	87.2672
1.756	87.3314
1.75	87.6143
1.744	87.7793
1.738	87.9261
1.732	88.0319
1.726	88.1516
1.72	88.2181
1.714	88.2802
1.708	88.3628
1.702	88.1748
1.696	88.0334
1.69	87.9262
1.684	88.1542
1.678	88.2353
1.672	88.3611
1.666	88.3214
1.66	88.4316
1.654	88.4492
1.648	88.3845
1.642	88.3902
1.636	88.4119
1.63	88.5027
1.624	88.3902
1.618	88.3657
1.612	88.2099
1.606	87.8608
1.6	88.1138
1.594	88.2397
1.588	88.2668
1.582	88.2609
1.576	88.2516
1.57	88.3048
1.564	88.2883
1.558	88.2539
1.552	88.26
1.546	88.2533
1.54	88.2292
1.534	88.1548
1.528	88.1078
1.522	88.056
1.516	87.9976
1.51	87.9441
1.504	87.8919
1.498	87.8812
1.492	87.7425
1.486	87.7246
1.48	87.7012
1.474	87.7068
1.468	87.6391
1.462	87.6846
1.456	87.5819
1.45	87.6441
1.444	87.6577
1.438	87.7036
1.432	87.7091
1.426	87.762
1.42	87.7533
1.414	87.8466
1.408	87.9656
1.402	88.0621
1.396	88.2037
1.39	88.2156
1.384	88.3057
1.378	88.3261
1.372	88.304
1.366	88.3526
1.36	88.3229
1.354	88.2579
1.348	88.2406
1.342	88.2959
1.336	88.364
1.33	88.1848
1.324	88.2792
1.318	88.2513
1.312	88.2587
1.306	88.2542
1.3	88.1265
1.294	88.1481
1.288	88.2829
1.282	88.2489
1.276	88.1451
1.27	88.2052
1.264	88.1521
1.258	88.0988
1.252	88.0687
1.246	88.1072
1.24	88.0596
1.234	88.0667
1.228	88.0469
1.222	88.0175
1.216	87.9616
1.21	87.9456
1.204	87.8616
1.198	87.8937
1.192	87.9155
1.186	87.8552
1.18	87.8563
1.174	87.8367
1.168	87.9533
1.162	87.9082
1.156	87.7773
1.15	87.8354
1.144	87.8489
1.138	87.7941
1.132	87.8621
1.126	87.7027
1.12	87.7859
1.114	87.7529
1.108	87.7668
1.102	87.6852
1.096	87.6936
1.09	87.6814
1.084	87.6161
1.078	87.6657
1.072	87.5613
1.066	87.4897
1.06	87.5986
1.054	87.5354
1.048	87.4521
1.042	87.4757
1.036	87.4446
1.03	87.486
1.024	87.3534
1.018	87.3571
1.012	87.2627
1.006	87.2532
1	87.2401
0.994	87.24
0.988	87.1377
0.982	87.0976
0.976	87.1413
0.97	87.0073
0.964	86.9939
0.958	86.9872
0.952	86.8731
0.946	86.8479
0.94	86.8521
0.934	86.7139
0.928	86.7209
0.922	86.6711
0.916	86.597
0.91	86.4981
0.904	86.5076
0.898	86.4543
0.892	86.4154
0.886	86.3325
0.88	86.2647
0.874	86.2358
0.868	86.1289
0.862	86.129
0.856	86.1186
0.85	86.0684
0.844	86.091
0.838	85.9898
0.832	85.9392
0.826	85.9475
0.82	85.8438
0.814	85.8789
0.808	85.7968
0.802	85.8317
0.796	85.6691
0.79	85.6426
0.784	85.6189
0.778	85.4889
0.772	85.4775
0.766	85.4122
0.76	85.3286
0.754	85.2704
0.748	85.194
0.742	85.1616
0.736	85.0607
0.73	84.9657
0.724	84.9079
0.718	84.8267
0.712	84.6911
0.706	84.5693
0.7	84.4783
0.694	84.37
0.688	84.2353
0.682	84.0944
0.676	83.9429
0.67	83.7887
0.664	83.629
0.658	83.4656
0.652	83.2726
0.646	83.0923
0.64	82.9001
0.634	82.7425
0.628	82.5638
0.622	82.38
0.616	82.2462
0.61	82.0991
0.604	81.9374
0.598	81.8055
0.592	81.6743
0.586	81.4409
0.58	81.1968
0.574	81.0244
0.568	80.8208
0.562	80.5796
0.556	80.2816
0.55	79.9844
0.544	79.6673
0.538	79.3201
0.532	78.9447
0.526	78.5594
0.52	78.1501
0.514	77.7019
0.508	77.2313
0.502	76.7149
0.496	76.2056
0.49	75.6547
0.484	75.0886
0.478	74.527
0.472	73.9612
0.466	73.3476
0.46	72.7139
0.454	72.0476
0.448	71.3509
0.442	70.6749
0.436	70.0178
0.43	69.3011
0.424	68.6007
0.418	67.7936
0.412	66.9808
0.406	66.0586
0.4	65.0228
