Name: Topaz Al_2SiO_4(F,OH)_2
Type: Mineral
Class: Silicates
Subclass: Nesosilicates
Particle Size: 0-45um
Sample No.: NS-6A
Owner: JPL
Origin: Australia, Western Australia, Grossmont.
Measurement: Hemispherical reflectance
X Units: Wavelength (micrometers)
Y Units: Reflectance (percent)
wavelength	value
2.5	43.4632
2.494	43.6375
2.488	43.922
2.482	44.3573
2.476	44.3881
2.47	44.5916
2.464	44.745
2.458	44.8969
2.452	45.2464
2.446	45.2713
2.44	45.5321
2.434	45.6163
2.428	45.5197
2.422	45.6137
2.416	45.8885
2.41	45.9962
2.404	46.11
2.398	46.2707
2.392	46.3247
2.386	46.385
2.38	46.4103
2.374	46.5794
2.368	46.6023
2.362	46.6471
2.356	46.7196
2.35	46.8479
2.344	46.8473
2.338	46.8425
2.332	46.8464
2.326	46.8387
2.32	46.8679
2.314	46.9717
2.308	46.9942
2.302	47.1228
2.296	47.1153
2.29	47.1977
2.284	47.2114
2.278	47.2071
2.272	47.0961
2.266	47.0509
2.26	47.0231
2.254	47.1588
2.248	47.1575
2.242	47.1941
2.236	47.2209
2.23	47.2055
2.224	47.2528
2.218	47.1638
2.212	47.2532
2.206	47.2454
2.2	47.3559
2.194	47.4311
2.188	47.4583
2.182	47.5114
2.176	47.5438
2.17	47.6056
2.164	47.7077
2.158	47.6756
2.152	47.6584
2.146	47.8101
2.14	47.8572
2.134	47.9094
2.128	47.9777
2.122	47.8895
2.116	47.6629
2.11	47.4848
2.104	47.2232
2.098	46.7909
2.092	45.2874
2.086	41.9854
2.08	42.0909
2.074	45.6809
2.068	47.2572
2.062	47.5834
2.056	47.7485
2.05	47.8047
2.044	47.9123
2.038	47.9326
2.032	47.9603
2.026	47.9908
2.02	47.9601
2.014	47.9767
2.008	48.028
2.002	48.0756
1.996	48.0867
1.99	48.0651
1.984	47.9987
1.978	48.0391
1.972	47.9697
1.966	47.9778
1.96	47.946
1.954	48.0085
1.948	47.9537
1.942	47.9113
1.936	47.9688
1.93	47.9786
1.924	47.9858
1.918	47.9269
1.912	47.9739
1.906	48.0712
1.9	48.1222
1.894	48.2937
1.888	48.3471
1.882	48.3245
1.876	48.4222
1.87	48.4084
1.864	48.5148
1.858	48.5174
1.852	48.4862
1.846	48.5332
1.84	48.6145
1.834	48.54
1.828	48.547
1.822	48.6666
1.816	48.5814
1.81	48.6166
1.804	48.6292
1.798	48.6778
1.792	48.6735
1.786	48.6858
1.78	48.6218
1.774	48.6386
1.768	48.6514
1.762	48.6553
1.756	48.67
1.75	48.6962
1.744	48.7471
1.738	48.7767
1.732	48.7854
1.726	48.7322
1.72	48.716
1.714	48.7586
1.708	48.7426
1.702	48.7324
1.696	48.68
1.69	48.7493
1.684	48.731
1.678	48.8178
1.672	48.7723
1.666	48.7472
1.66	48.8162
1.654	48.8537
1.648	48.8034
1.642	48.8469
1.636	48.8186
1.63	48.8069
1.624	48.8354
1.618	48.8449
1.612	48.8891
1.606	48.8775
1.6	48.8585
1.594	48.8997
1.588	48.8816
1.582	48.8793
1.576	48.8729
1.57	48.9313
1.564	48.9075
1.558	48.887
1.552	48.8756
1.546	48.9321
1.54	48.9506
1.534	48.9282
1.528	48.8714
1.522	49.0015
1.516	48.9176
1.51	48.9768
1.504	48.9611
1.498	49.0432
1.492	48.9563
1.486	48.9317
1.48	48.9948
1.474	48.962
1.468	48.9649
1.462	48.9465
1.456	49.0471
1.45	48.9312
1.444	49.0085
1.438	49.0014
1.432	49.0018
1.426	49.0209
1.42	48.9456
1.414	48.9296
1.408	48.4006
1.402	48.4936
1.396	49.1369
1.39	49.1621
1.384	49.2363
1.378	49.1237
1.372	49.1271
1.366	49.2022
1.36	49.1101
1.354	49.1701
1.348	49.1725
1.342	49.1596
1.336	49.2352
1.33	49.1933
1.324	49.2363
1.318	49.2591
1.312	49.1879
1.306	49.2585
1.3	49.2073
1.294	49.2511
1.288	49.2757
1.282	49.2336
1.276	49.1964
1.27	49.2685
1.264	49.3019
1.258	49.2536
1.252	49.3101
1.246	49.3344
1.24	49.2821
1.234	49.2894
1.228	49.3283
1.222	49.3289
1.216	49.3354
1.21	49.3541
1.204	49.3032
1.198	49.3592
1.192	49.3856
1.186	49.357
1.18	49.3268
1.174	49.4171
1.168	49.3781
1.162	49.4486
1.156	49.4496
1.15	49.4494
1.144	49.4372
1.138	49.4352
1.132	49.5168
1.126	49.4966
1.12	49.4524
1.114	49.4854
1.108	49.5802
1.102	49.596
1.096	49.5597
1.09	49.5405
1.084	49.5649
1.078	49.6875
1.072	49.6089
1.066	49.5594
1.06	49.5864
1.054	49.7262
1.048	49.7634
1.042	49.7048
1.036	49.6835
1.03	49.7503
1.024	49.7444
1.018	49.7849
1.012	49.7457
1.006	49.8085
1	49.7983
0.994	49.7859
0.988	49.8179
0.982	49.8262
0.976	49.8078
0.97	49.8702
0.964	49.8374
0.958	49.8834
0.952	49.8673
0.946	49.9076
0.94	49.9335
0.934	49.8718
0.928	49.9832
0.922	49.9317
0.916	49.9875
0.91	49.9952
0.904	49.9861
0.898	50.0091
0.892	50.017
0.886	50.022
0.88	50.0357
0.874	50.0291
0.868	50.0061
0.862	50.0296
0.856	50.2142
0.85	50.2917
0.844	50.2733
0.838	50.269
0.832	50.338
0.826	50.3136
0.82	50.3419
0.814	50.3536
0.808	50.3597
0.802	50.3618
0.796	50.323
0.79	50.3239
0.784	50.323
0.778	50.3227
0.772	50.3173
0.766	50.3453
0.76	50.3671
0.754	50.3696
0.748	50.3694
0.742	50.3587
0.736	50.3906
0.73	50.3942
0.724	50.386
0.718	50.4222
0.712	50.434
0.706	50.4196
0.7	50.4348
0.694	50.4244
0.688	50.45
0.682	50.4636
0.676	50.4746
0.67	50.4758
0.664	50.4841
0.658	50.4903
0.652	50.5042
0.646	50.5114
0.64	50.5188
0.634	50.5412
0.628	50.5554
0.622	50.5481
0.616	50.5717
0.61	50.5727
0.604	50.5855
0.598	50.6195
0.592	50.6565
0.586	50.6801
0.58	50.6748
0.574	50.6761
0.568	50.6814
0.562	50.6878
0.556	50.7017
0.55	50.7063
0.544	50.7133
0.538	50.7229
0.532	50.7059
0.526	50.7079
0.52	50.7258
0.514	50.7197
0.508	50.7429
0.502	50.7425
0.496	50.7381
0.49	50.7637
0.484	50.7489
0.478	50.7581
0.472	50.7517
0.466	50.7664
0.46	50.7662
0.454	50.7593
0.448	50.7554
0.442	50.7535
0.436	50.7347
0.43	50.7267
0.424	50.7315
0.418	50.7037
0.412	50.6785
0.406	50.6696
0.4	50.6373
