Name: Stilbite NaCa_2Al_5Si_3O_36.14H_2O
Type: Mineral
Class: Silicates
Subclass: Tectosilicates
Particle Size: 125-500um
Sample No.: TS-9A
Owner: JPL
Origin: India.
Measurement: Hemispherical reflectance
X Units: Wavelength (micrometers)
Y Units: Reflectance (percent)
wavelength	value
2.5	2.66924
2.494	2.94523
2.488	2.89177
2.482	3.06569
2.476	3.0768
2.47	3.14446
2.464	3.29185
2.458	3.22499
2.452	3.46175
2.446	3.56448
2.44	3.70357
2.434	3.84207
2.428	3.992
2.422	4.3509
2.416	4.54585
2.41	4.89083
2.404	5.40563
2.398	5.95555
2.392	6.66111
2.386	7.39522
2.38	8.20326
2.374	9.11608
2.368	10.0663
2.362	11.1337
2.356	12.2111
2.35	13.2611
2.344	14.3358
2.338	15.3701
2.332	16.3719
2.326	17.2428
2.32	18.1389
2.314	19.0171
2.308	19.8408
2.302	20.5506
2.296	21.2942
2.29	21.9217
2.284	22.499
2.278	23.0131
2.272	23.583
2.266	23.954
2.26	24.3679
2.254	24.741
2.248	24.9268
2.242	25.1852
2.236	25.4232
2.23	25.5565
2.224	25.6476
2.218	25.8526
2.212	25.9923
2.206	25.9957
2.2	26.0301
2.194	26.0556
2.188	26.1019
2.182	26.1245
2.176	26.1572
2.17	26.1012
2.164	26.0203
2.158	26.0218
2.152	25.8941
2.146	25.6679
2.14	25.5457
2.134	25.3193
2.128	24.9866
2.122	24.7144
2.116	24.3056
2.11	23.8728
2.104	23.4864
2.098	23.1186
2.092	22.7536
2.086	22.496
2.08	22.2877
2.074	22.038
2.068	21.8406
2.062	21.4448
2.056	21.0616
2.05	20.4747
2.044	19.8012
2.038	19.0337
2.032	18.1591
2.026	17.1018
2.02	15.9709
2.014	14.8718
2.008	13.7246
2.002	12.6244
1.996	11.6431
1.99	10.768
1.984	10.0653
1.978	9.35769
1.972	8.75107
1.966	8.30256
1.96	7.71211
1.954	7.18391
1.948	6.53257
1.942	5.88284
1.936	5.17336
1.93	4.38469
1.924	3.75112
1.918	3.32239
1.912	3.25912
1.906	3.82675
1.9	5.82121
1.894	9.13725
1.888	13.3972
1.882	17.781
1.876	21.6297
1.87	25.6423
1.864	28.6186
1.858	30.9409
1.852	32.8854
1.846	34.2584
1.84	35.3563
1.834	36.3002
1.828	36.8835
1.822	37.3239
1.816	37.6886
1.81	38.0236
1.804	38.3298
1.798	38.6232
1.792	38.8413
1.786	39.1614
1.78	39.3836
1.774	39.6023
1.768	39.8003
1.762	40.0285
1.756	40.3345
1.75	40.8097
1.744	41.4158
1.738	42.1499
1.732	43.1451
1.726	44.1892
1.72	45.2609
1.714	46.2584
1.708	47.0371
1.702	47.6202
1.696	48.059
1.69	48.298
1.684	48.3734
1.678	48.3756
1.672	48.2241
1.666	48.1138
1.66	47.974
1.654	47.7044
1.648	47.4525
1.642	47.3826
1.636	47.0009
1.63	46.7804
1.624	46.5369
1.618	46.2993
1.612	46.1607
1.606	45.9828
1.6	45.8015
1.594	45.6502
1.588	45.5015
1.582	45.2992
1.576	45.0961
1.57	44.9152
1.564	44.7372
1.558	44.5253
1.552	44.2586
1.546	43.8759
1.54	43.473
1.534	42.9609
1.528	42.2984
1.522	41.5238
1.516	40.5431
1.51	39.4342
1.504	38.0659
1.498	36.4987
1.492	34.6655
1.486	32.4647
1.48	30.0647
1.474	27.6519
1.468	26.4117
1.462	26.5544
1.456	26.1648
1.45	24.6368
1.444	22.6828
1.438	20.679
1.432	18.9328
1.426	17.8274
1.42	17.8192
1.414	19.2256
1.408	22.5357
1.402	27.3923
1.396	33.0702
1.39	38.2115
1.384	42.2907
1.378	45.8067
1.372	48.2429
1.366	50.3408
1.36	52.5493
1.354	54.4387
1.348	56.2654
1.342	58.0382
1.336	59.6675
1.33	61.3273
1.324	63.2063
1.318	65.1412
1.312	66.7619
1.306	68.224
1.3	69.3702
1.294	70.1726
1.288	70.861
1.282	71.2898
1.276	71.5684
1.27	71.7846
1.264	71.8447
1.258	71.8025
1.252	71.6544
1.246	71.509
1.24	71.3298
1.234	71.1413
1.228	70.8492
1.222	70.4666
1.216	70.1639
1.21	69.5166
1.204	68.8912
1.198	68.2581
1.192	67.9407
1.186	67.4599
1.18	66.3098
1.174	64.6758
1.168	62.8069
1.162	61.698
1.156	62.8104
1.15	66.6933
1.144	71.0503
1.138	74.1161
1.132	75.9089
1.126	76.8022
1.12	77.4041
1.114	77.9261
1.108	78.1815
1.102	78.4001
1.096	78.7654
1.09	79.0068
1.084	79.1347
1.078	79.3051
1.072	79.36
1.066	79.3848
1.06	79.2731
1.054	79.2804
1.048	79.1363
1.042	78.8893
1.036	78.6768
1.03	78.4514
1.024	78.0815
1.018	77.5596
1.012	76.9983
1.006	76.3224
1	75.4098
0.994	74.4602
0.988	73.2413
0.982	72.1275
0.976	71.3092
0.97	70.8804
0.964	71.4026
0.958	73.3103
0.952	75.2888
0.946	76.4415
0.94	77.3179
0.934	77.9091
0.928	78.4332
0.922	78.7518
0.916	78.9918
0.91	79.1899
0.904	79.1902
0.898	79.2516
0.892	79.3937
0.886	79.3878
0.88	79.381
0.874	79.3487
0.868	79.313
0.862	79.368
0.856	79.4041
0.85	79.3367
0.844	79.256
0.838	79.3571
0.832	79.4845
0.826	79.719
0.82	79.7806
0.814	79.8016
0.808	79.8758
0.802	79.8867
0.796	79.9104
0.79	79.7823
0.784	79.8202
0.778	79.819
0.772	79.7586
0.766	79.6912
0.76	79.6764
0.754	79.575
0.748	79.5017
0.742	79.5151
0.736	79.6854
0.73	79.7913
0.724	79.9413
0.718	79.9273
0.712	79.9838
0.706	80.009
0.7	79.9853
0.694	79.9801
0.688	79.9638
0.682	79.9458
0.676	79.9142
0.67	79.8905
0.664	79.868
0.658	79.85
0.652	79.8391
0.646	79.8091
0.64	79.7815
0.634	79.7619
0.628	79.7308
0.622	79.6912
0.616	79.6551
0.61	79.591
0.604	79.5275
0.598	79.5022
0.592	79.4684
0.586	79.3484
0.58	79.2145
0.574	79.0358
0.568	78.8181
0.562	78.5594
0.556	78.3058
0.55	78.0176
0.544	77.7692
0.538	77.5089
0.532	77.2756
0.526	77.0564
0.52	76.8598
0.514	76.6478
0.508	76.4344
0.502	76.2198
0.496	75.9475
0.49	75.6652
0.484	75.395
0.478	75.0962
0.472	74.8158
0.466	74.4758
0.46	74.089
0.454	73.6569
0.448	73.2024
0.442	72.6934
0.436	72.1762
0.43	71.6648
0.424	71.1957
0.418	70.7789
0.412	70.4227
0.406	70.0519
0.4	69.7239
