Name: Epidote Ca_2(Al,Fe^3+)_3O.SiO_4.Si_2O_7.OH
Type: Mineral
Class: Silicates
Subclass: Sorosilicate
Particle Size: 125-500um
Sample No.: SS-1A
Owner: JPL
Origin: Mexico, Baja California Norte, Valle De La Trinidad.
Measurement: Hemispherical reflectance
X Units: Wavelength (micrometers)
Y Units: Reflectance (percent)
wavelength	value
2.5	40.0761
2.494	40.6554
2.488	41.4199
2.482	42.2476
2.476	42.8717
2.47	43.5938
2.464	44.1728
2.458	44.6968
2.452	45.2592
2.446	45.8389
2.44	46.1606
2.434	46.4508
2.428	46.4575
2.422	46.2194
2.416	45.9005
2.41	45.1713
2.404	44.215
2.398	42.8845
2.392	41.2345
2.386	39.0226
2.38	36.1025
2.374	32.4541
2.368	27.9078
2.362	22.7625
2.356	17.7809
2.35	13.8904
2.344	11.5305
2.338	10.6579
2.332	10.9252
2.326	12.1097
2.32	13.9568
2.314	16.4646
2.308	19.3945
2.302	22.3349
2.296	25.064
2.29	27.6457
2.284	29.8129
2.278	31.1944
2.272	31.4146
2.266	30.2886
2.26	28.2567
2.254	27.1464
2.248	28.6086
2.242	32.8137
2.236	38.0532
2.23	42.4924
2.224	45.5918
2.218	47.5149
2.212	48.9504
2.206	49.9383
2.2	50.6489
2.194	51.255
2.188	51.7837
2.182	52.3232
2.176	52.8751
2.17	53.3555
2.164	53.8344
2.158	54.1968
2.152	54.4566
2.146	54.5514
2.14	54.5459
2.134	54.5325
2.128	54.418
2.122	54.2695
2.116	54.2029
2.11	54.0345
2.104	53.9704
2.098	53.9325
2.092	53.8734
2.086	53.8661
2.08	53.8525
2.074	53.8271
2.068	53.7023
2.062	53.605
2.056	53.5085
2.05	53.3968
2.044	53.3357
2.038	53.0841
2.032	52.8371
2.026	52.6007
2.02	52.4725
2.014	52.3661
2.008	52.2704
2.002	52.0227
1.996	51.8118
1.99	51.561
1.984	51.3716
1.978	50.9904
1.972	50.4039
1.966	49.712
1.96	49.067
1.954	48.231
1.948	47.8984
1.942	48.1855
1.936	48.7251
1.93	48.925
1.924	48.9583
1.918	48.8734
1.912	48.7362
1.906	48.6218
1.9	48.2988
1.894	47.8242
1.888	47.3274
1.882	46.9042
1.876	46.9199
1.87	46.9812
1.864	46.9812
1.858	46.7156
1.852	46.2532
1.846	45.4851
1.84	44.6474
1.834	43.8529
1.828	43.6511
1.822	44.3232
1.816	45.1253
1.81	45.3109
1.804	45.3522
1.798	45.3025
1.792	45.1811
1.786	44.9341
1.78	44.6904
1.774	44.5086
1.768	44.2682
1.762	44.0414
1.756	43.9489
1.75	43.7258
1.744	43.5837
1.738	43.4213
1.732	43.2455
1.726	43.1558
1.72	42.9347
1.714	42.7434
1.708	42.5491
1.702	42.4004
1.696	42.1694
1.69	42.081
1.684	41.8827
1.678	41.789
1.672	41.6565
1.666	41.6444
1.66	41.6634
1.654	41.5409
1.648	41.3724
1.642	41.3611
1.636	41.1119
1.63	40.8914
1.624	40.7854
1.618	40.718
1.612	40.5803
1.606	40.3595
1.6	40.1402
1.594	39.7805
1.588	39.4412
1.582	39.0165
1.576	38.644
1.57	38.2631
1.564	37.5886
1.558	36.7854
1.552	36.2576
1.546	36.2778
1.54	36.7445
1.534	37.2012
1.528	37.8826
1.522	38.4653
1.516	39.1771
1.51	39.8531
1.504	40.4407
1.498	40.8929
1.492	41.2943
1.486	41.6206
1.48	41.8388
1.474	42.1007
1.468	42.3221
1.462	42.4244
1.456	42.5018
1.45	42.5411
1.444	42.5971
1.438	42.5968
1.432	42.5747
1.426	42.5556
1.42	42.4988
1.414	42.2741
1.408	42.1869
1.402	42.1444
1.396	42.2246
1.39	42.2751
1.384	42.1639
1.378	42.02
1.372	41.8535
1.366	41.7504
1.36	41.6056
1.354	41.2915
1.348	41.1486
1.342	40.9732
1.336	40.8068
1.33	40.6817
1.324	40.4176
1.318	40.2601
1.312	40.1285
1.306	40.0092
1.3	39.7727
1.294	39.6639
1.288	39.4352
1.282	39.2905
1.276	38.9366
1.27	38.6986
1.264	38.3356
1.258	38.0966
1.252	37.6841
1.246	37.2625
1.24	36.8702
1.234	36.4044
1.228	35.8002
1.222	35.2377
1.216	34.5907
1.21	34.0032
1.204	33.3448
1.198	32.6847
1.192	31.9918
1.186	31.3545
1.18	30.703
1.174	30.11
1.168	29.5512
1.162	28.9576
1.156	28.4682
1.15	27.8986
1.144	27.4773
1.138	27
1.132	26.5374
1.126	26.112
1.12	25.6666
1.114	25.2394
1.108	24.8194
1.102	24.5339
1.096	24.2723
1.09	23.9798
1.084	23.785
1.078	23.5565
1.072	23.3575
1.066	23.3128
1.06	23.2315
1.054	23.1469
1.048	23.1022
1.042	23.1398
1.036	23.1001
1.03	23.0696
1.024	23.1347
1.018	23.2752
1.012	23.3683
1.006	23.415
1	23.549
0.994	23.7214
0.988	23.7706
0.982	23.9809
0.976	24.0487
0.97	24.1668
0.964	24.3152
0.958	24.4422
0.952	24.5497
0.946	24.5528
0.94	24.6113
0.934	24.6192
0.928	24.6099
0.922	24.5149
0.916	24.3226
0.91	24.2136
0.904	23.9866
0.898	23.6931
0.892	23.3286
0.886	23.0265
0.88	22.6076
0.874	22.2104
0.868	21.7712
0.862	21.3251
0.856	21.1487
0.85	20.8274
0.844	20.5404
0.838	20.3479
0.832	20.1501
0.826	20.0025
0.82	19.8892
0.814	19.8149
0.808	19.7591
0.802	19.715
0.796	19.6631
0.79	19.6239
0.784	19.5901
0.778	19.5364
0.772	19.4748
0.766	19.3954
0.76	19.2889
0.754	19.1694
0.748	19.0292
0.742	18.851
0.736	18.65
0.73	18.4122
0.724	18.1494
0.718	17.8602
0.712	17.5413
0.706	17.2015
0.7	16.8354
0.694	16.4492
0.688	16.0516
0.682	15.641
0.676	15.2165
0.67	14.8004
0.664	14.3908
0.658	14.0018
0.652	13.6303
0.646	13.2874
0.64	12.9859
0.634	12.7187
0.628	12.5016
0.622	12.322
0.616	12.1902
0.61	12.0953
0.604	12.0355
0.598	12.0173
0.592	12.0228
0.586	12.0441
0.58	12.0701
0.574	12.1039
0.568	12.1358
0.562	12.1574
0.556	12.2166
0.55	12.2852
0.544	12.2873
0.538	12.1784
0.532	11.9889
0.526	11.7415
0.52	11.4115
0.514	10.9866
0.508	10.4333
0.502	9.79347
0.496	8.9909
0.49	8.0361
0.484	7.00141
0.478	6.17357
0.472	5.83059
0.466	6.03072
0.46	6.05424
0.454	5.72229
0.448	6.34904
0.442	6.49282
0.436	6.15218
0.43	5.59983
0.424	5.17224
0.418	4.85114
0.412	4.62025
0.406	4.51693
0.4	4.51714
