Name: Calcite CaCO_3
Type: Mineral
Class: Carbonates
Particle Size: 125-500um
Sample No.: C-3A
Owner: JPL
Origin: Italy.
Description: Travertine
Measurement: Hemispherical reflectance
X Units: Wavelength (micrometers)
Y Units: Reflectance (percent)
wavelength	value
2.5	38.3218
2.494	38.907
2.488	39.9596
2.482	41.6222
2.476	43.7742
2.47	46.6506
2.464	49.4776
2.458	52.6535
2.452	55.1976
2.446	57.5403
2.44	59.5527
2.434	61.3209
2.428	63.0195
2.422	64.5904
2.416	65.938
2.41	66.8104
2.404	67.4606
2.398	67.8759
2.392	68.2291
2.386	68.2903
2.38	67.6091
2.374	65.8941
2.368	62.995
2.362	58.8706
2.356	54.0946
2.35	49.4721
2.344	46.2655
2.338	45.0005
2.332	45.5036
2.326	47.1536
2.32	49.103
2.314	50.8691
2.308	52.2121
2.302	53.2942
2.296	54.3859
2.29	55.9062
2.284	57.7371
2.278	59.9799
2.272	62.3577
2.266	64.6104
2.26	66.5399
2.254	68.2461
2.248	69.8711
2.242	71.3221
2.236	72.6467
2.23	73.7409
2.224	74.7654
2.218	75.7498
2.212	76.5428
2.206	77.0552
2.2	77.6017
2.194	77.8605
2.188	77.9354
2.182	77.8391
2.176	77.4852
2.17	76.8099
2.164	76.3504
2.158	76.1132
2.152	76.2866
2.146	76.9562
2.14	77.8551
2.134	78.5377
2.128	78.7743
2.122	78.794
2.116	78.7372
2.11	78.6785
2.104	78.6679
2.098	78.7435
2.092	78.8771
2.086	78.9868
2.08	79.056
2.074	79.0254
2.068	79.0133
2.062	78.9933
2.056	78.9016
2.05	78.7828
2.044	78.6672
2.038	78.4028
2.032	78.0709
2.026	77.5704
2.02	77.0153
2.014	76.2308
2.008	75.0474
2.002	73.5584
1.996	72.7918
1.99	73.1486
1.984	73.7073
1.978	73.7039
1.972	73.591
1.966	73.415
1.96	73.3768
1.954	73.3758
1.948	73.4314
1.942	73.5027
1.936	73.6038
1.93	73.8247
1.924	74.3692
1.918	75.1036
1.912	76.1012
1.906	77.3011
1.9	78.6405
1.894	79.6512
1.888	79.9124
1.882	79.013
1.876	78.4799
1.87	79.8087
1.864	81.4791
1.858	82.5547
1.852	83.156
1.846	83.5564
1.84	84.0166
1.834	84.6557
1.828	85.0893
1.822	85.4986
1.816	85.7414
1.81	85.9383
1.804	86.0712
1.798	86.2687
1.792	86.3177
1.786	86.4366
1.78	86.4102
1.774	86.3687
1.768	86.0661
1.762	85.7674
1.756	85.7038
1.75	85.9064
1.744	86.0155
1.738	86.0226
1.732	86.1475
1.726	86.3037
1.72	86.485
1.714	86.6909
1.708	86.8731
1.702	86.9958
1.696	87.0814
1.69	87.1907
1.684	87.374
1.678	87.4515
1.672	87.471
1.666	87.4776
1.66	87.5705
1.654	87.5096
1.648	87.466
1.642	87.6389
1.636	87.6127
1.63	87.7025
1.624	87.83
1.618	87.8013
1.612	87.8396
1.606	87.8999
1.6	87.804
1.594	87.8706
1.588	87.7649
1.582	87.717
1.576	87.5682
1.57	87.4736
1.564	87.3562
1.558	87.489
1.552	87.3828
1.546	87.3379
1.54	87.3122
1.534	87.2341
1.528	87.1428
1.522	87.0756
1.516	86.9211
1.51	86.8313
1.504	86.6712
1.498	86.5519
1.492	86.365
1.486	86.1928
1.48	86.0355
1.474	86.0022
1.468	85.8748
1.462	85.8929
1.456	85.8172
1.45	85.8959
1.444	85.9212
1.438	86.0775
1.432	86.2946
1.426	86.482
1.42	86.7885
1.414	87.177
1.408	87.4886
1.402	88.0355
1.396	88.5393
1.39	88.8377
1.384	89.1487
1.378	89.2994
1.372	89.4911
1.366	89.4577
1.36	89.5061
1.354	89.5076
1.348	89.55
1.342	89.5516
1.336	89.6335
1.33	89.7253
1.324	89.71
1.318	89.7374
1.312	89.7438
1.306	89.8244
1.3	89.8845
1.294	89.8667
1.288	89.7473
1.282	89.8537
1.276	89.7841
1.27	89.7722
1.264	89.8095
1.258	89.7303
1.252	89.8081
1.246	89.8018
1.24	89.8135
1.234	89.7661
1.228	89.7968
1.222	89.8266
1.216	89.7957
1.21	89.7624
1.204	89.7332
1.198	89.7277
1.192	89.7367
1.186	89.749
1.18	89.7825
1.174	89.7487
1.168	89.7651
1.162	89.8105
1.156	89.8394
1.15	89.8908
1.144	89.83
1.138	89.882
1.132	89.8997
1.126	89.8681
1.12	89.9032
1.114	89.9319
1.108	89.9352
1.102	89.9322
1.096	89.9902
1.09	89.934
1.084	89.9303
1.078	89.9045
1.072	89.9077
1.066	89.939
1.06	89.9848
1.054	89.9513
1.048	90.0942
1.042	89.9898
1.036	89.9894
1.03	89.922
1.024	90
1.018	89.9115
1.012	89.9666
1.006	90.0152
1	89.9955
0.994	89.9997
0.988	89.9395
0.982	89.9326
0.976	89.9558
0.97	89.9756
0.964	89.9907
0.958	89.8914
0.952	89.9566
0.946	89.8589
0.94	89.8974
0.934	89.9052
0.928	89.9129
0.922	89.8213
0.916	89.8488
0.91	89.7453
0.904	89.7352
0.898	89.738
0.892	89.5861
0.886	89.5747
0.88	89.5099
0.874	89.4656
0.868	89.4012
0.862	89.4019
0.856	89.1835
0.85	89.179
0.844	89.0102
0.838	88.9877
0.832	89.0195
0.826	88.9118
0.82	88.8741
0.814	88.7406
0.808	88.7237
0.802	88.6372
0.796	88.4641
0.79	88.2892
0.784	88.1997
0.778	88.0502
0.772	87.8807
0.766	87.6964
0.76	87.4993
0.754	87.4151
0.748	87.2511
0.742	87.0795
0.736	86.8738
0.73	86.6892
0.724	86.4935
0.718	86.264
0.712	86.069
0.706	85.7859
0.7	85.5399
0.694	85.2713
0.688	84.9964
0.682	84.6612
0.676	84.3654
0.67	84.0194
0.664	83.6904
0.658	83.3738
0.652	83.0362
0.646	82.6685
0.64	82.316
0.634	81.9286
0.628	81.5083
0.622	81.0966
0.616	80.635
0.61	80.1662
0.604	79.7121
0.598	79.2338
0.592	78.7581
0.586	78.2276
0.58	77.6651
0.574	77.0836
0.568	76.4815
0.562	75.8717
0.556	75.2178
0.55	74.5871
0.544	73.8745
0.538	73.1606
0.532	72.4231
0.526	71.6963
0.52	70.9223
0.514	70.1251
0.508	69.3001
0.502	68.4607
0.496	67.5561
0.49	66.695
0.484	65.7136
0.478	64.8823
0.472	64.0025
0.466	63.0759
0.46	62.1239
0.454	61.1199
0.448	60.1
0.442	59.0082
0.436	57.9259
0.43	56.8011
0.424	55.625
0.418	54.4341
0.412	53.2091
0.406	51.9608
0.4	50.6454
