Name: Nontronite Na_0.33Fe_2^3+(Si,Al)_4O_10(OH)_2.H_2O
Type: Mineral
Class: Silicates
Subclass: Phyllosilicates
Particle Size: 0-45um
Sample No.: PS-6D
Owner: JPL
Origin: USA, Washington, Grant County.
Measurement: Hemispherical reflectance
X Units: Wavelength (micrometers)
Y Units: Reflectance (percent)
wavelength	value
2.5	27.7132
2.494	28.0249
2.488	28.5307
2.482	29.152
2.476	29.8312
2.47	30.5356
2.464	31.0092
2.458	31.8037
2.452	32.475
2.446	33.0728
2.44	33.7391
2.434	34.3679
2.428	35.0154
2.422	35.515
2.416	35.8695
2.41	36.2908
2.404	36.6149
2.398	36.9659
2.392	37.5173
2.386	38.1936
2.38	39.0464
2.374	39.9789
2.368	40.9318
2.362	41.9738
2.356	43.1093
2.35	44.0902
2.344	44.9616
2.338	45.782
2.332	46.4779
2.326	46.9918
2.32	47.3113
2.314	47.2641
2.308	46.7499
2.302	45.6545
2.296	44.7283
2.29	44.3956
2.284	45.0155
2.278	46.4114
2.272	47.9317
2.266	49.1402
2.26	49.7205
2.254	49.6008
2.248	48.922
2.242	48.6186
2.236	48.7853
2.23	49.486
2.224	50.4769
2.218	51.3188
2.212	52.0316
2.206	52.7464
2.2	53.5119
2.194	54.0761
2.188	54.8989
2.182	55.6299
2.176	56.2189
2.17	56.8202
2.164	57.2503
2.158	57.5379
2.152	57.6634
2.146	57.4098
2.14	57.2358
2.134	56.9875
2.128	56.5871
2.122	56.1577
2.116	55.7317
2.11	55.1973
2.104	54.8231
2.098	54.4925
2.092	54.1869
2.086	53.9421
2.08	53.6873
2.074	53.3613
2.068	53.1287
2.062	52.6449
2.056	52.1619
2.05	51.7035
2.044	51.1352
2.038	50.4264
2.032	49.6942
2.026	48.7985
2.02	47.8159
2.014	46.933
2.008	45.9149
2.002	44.8846
1.996	43.7639
1.99	42.6366
1.984	41.6583
1.978	40.6474
1.972	39.7653
1.966	38.8764
1.96	38.2094
1.954	37.3535
1.948	36.7699
1.942	36.0351
1.936	35.1871
1.93	34.1398
1.924	32.598
1.918	30.7827
1.912	29.0752
1.906	28.6918
1.9	31.9859
1.894	38.5693
1.888	45.8958
1.882	52.1
1.876	56.423
1.87	60.0774
1.864	62.4978
1.858	64.0363
1.852	65.0247
1.846	65.6917
1.84	66.095
1.834	66.3385
1.828	66.5121
1.822	66.6531
1.816	66.7189
1.81	66.7183
1.804	66.7722
1.798	66.7852
1.792	66.9099
1.786	67.0007
1.78	67.1546
1.774	67.3281
1.768	67.539
1.762	67.8202
1.756	68.0583
1.75	68.4245
1.744	68.6362
1.738	68.8192
1.732	68.9809
1.726	69.1855
1.72	69.2962
1.714	69.4375
1.708	69.4627
1.702	69.575
1.696	69.5636
1.69	69.6504
1.684	69.6345
1.678	69.685
1.672	69.6387
1.666	69.5104
1.66	69.603
1.654	69.322
1.648	69.3696
1.642	69.4031
1.636	69.2389
1.63	69.0943
1.624	69.0182
1.618	68.8127
1.612	68.7259
1.606	68.6273
1.6	68.4501
1.594	68.2594
1.588	68.0151
1.582	67.7217
1.576	67.492
1.57	67.2156
1.564	66.9615
1.558	66.6307
1.552	66.2554
1.546	65.9321
1.54	65.4925
1.534	65.0895
1.528	64.6284
1.522	64.1131
1.516	63.6675
1.51	63.0151
1.504	62.3012
1.498	61.6508
1.492	60.9111
1.486	59.9821
1.48	59.1493
1.474	58.0717
1.468	57.0694
1.462	56.6102
1.456	56.3518
1.45	55.6351
1.444	53.9508
1.438	52.4988
1.432	51.5604
1.426	50.3366
1.42	49.537
1.414	49.7265
1.408	51.2919
1.402	54.5825
1.396	58.9084
1.39	62.7496
1.384	65.4883
1.378	67.1953
1.372	68.1508
1.366	68.6181
1.36	68.7626
1.354	68.9956
1.348	69.1301
1.342	69.3425
1.336	69.4799
1.33	69.6341
1.324	69.753
1.318	69.8736
1.312	70.0252
1.306	70.0743
1.3	70.1751
1.294	70.0451
1.288	70.0505
1.282	69.9447
1.276	69.7531
1.27	69.5814
1.264	69.4093
1.258	69.2941
1.252	69.0847
1.246	68.9249
1.24	68.6714
1.234	68.5378
1.228	68.3483
1.222	68.1218
1.216	67.8735
1.21	67.7082
1.204	67.3946
1.198	67.2205
1.192	66.97
1.186	66.7258
1.18	66.5485
1.174	66.2425
1.168	65.8905
1.162	65.5673
1.156	65.215
1.15	65.0928
1.144	65.2206
1.138	65.1376
1.132	64.8858
1.126	64.712
1.12	64.3619
1.114	64.1235
1.108	63.7299
1.102	63.4219
1.096	63.0184
1.09	62.7027
1.084	62.4703
1.078	62.0153
1.072	61.6797
1.066	61.355
1.06	60.9621
1.054	60.523
1.048	60.2371
1.042	59.7819
1.036	59.5103
1.03	59.1449
1.024	58.8195
1.018	58.5148
1.012	58.1401
1.006	57.822
1	57.548
0.994	57.158
0.988	56.9011
0.982	56.5667
0.976	56.2508
0.97	55.9986
0.964	55.8175
0.958	55.783
0.952	55.6848
0.946	55.5732
0.94	55.5254
0.934	55.4255
0.928	55.3179
0.922	55.2564
0.916	55.201
0.91	55.1903
0.904	55.0516
0.898	55.0601
0.892	55.0988
0.886	55.0581
0.88	54.9882
0.874	54.9542
0.868	54.9565
0.862	54.9895
0.856	55.0402
0.85	55.0667
0.844	55.0687
0.838	55.0599
0.832	55.0336
0.826	54.9667
0.82	54.889
0.814	54.7954
0.808	54.6467
0.802	54.4595
0.796	54.1581
0.79	53.8485
0.784	53.543
0.778	53.1149
0.772	52.658
0.766	52.0737
0.76	51.4425
0.754	50.747
0.748	49.9002
0.742	48.9889
0.736	47.9266
0.73	46.8015
0.724	45.5633
0.718	44.2129
0.712	42.8181
0.706	41.356
0.7	39.8867
0.694	38.4407
0.688	37.046
0.682	35.7649
0.676	34.5582
0.67	33.5021
0.664	32.6429
0.658	31.8936
0.652	31.3238
0.646	30.8981
0.64	30.6289
0.634	30.4896
0.628	30.4763
0.622	30.5687
0.616	30.7431
0.61	30.9471
0.604	31.1731
0.598	31.3587
0.592	31.4665
0.586	31.4158
0.58	31.195
0.574	30.7562
0.568	30.0498
0.562	28.9553
0.556	27.4677
0.55	25.9521
0.544	24.6315
0.538	23.2864
0.532	21.6066
0.526	19.92
0.52	18.7263
0.514	17.932
0.508	17.2569
0.502	16.7067
0.496	16.3331
0.49	15.955
0.484	15.3747
0.478	14.6219
0.472	13.6465
0.466	12.5592
0.46	11.5351
0.454	10.6025
0.448	9.75487
0.442	9.16185
0.436	8.81072
0.43	8.34409
0.424	7.85246
0.418	7.32585
0.412	6.81037
0.406	6.32923
0.4	5.88811
