Name: Magnesite MgCO_3
Type: Mineral
Class: Carbonates
Particle Size: 125-500um
Sample No.: C-6A
Owner: JPL
Wavelength Range: VNIR-SWIR
Origin: USA, California, Riverside County
Measurement: Hemispherical reflectance
X Units: Wavelength (micrometers)
Y Units: Reflectance (percent)
wavelength	value
0.4	63.95
0.403	64.35
0.406	64.63
0.409	65.2
0.412	65.26
0.415	65.95
0.418	66
0.421	66.4
0.424	66.86
0.427	66.92
0.43	67.66
0.433	67.83
0.436	68.41
0.439	68.8
0.442	69.09
0.445	69.78
0.448	69.9
0.451	70.41
0.454	70.99
0.457	70.93
0.46	71.39
0.463	72.09
0.466	72.37
0.469	72.67
0.472	73.24
0.475	73.42
0.478	74
0.481	74.05
0.484	74.47
0.487	74.87
0.49	75.16
0.493	75.74
0.496	75.79
0.499	76.32
0.502	76.84
0.505	77.01
0.508	77.81
0.511	77.92
0.514	78.38
0.517	78.84
0.52	78.89
0.523	79.53
0.526	79.47
0.529	79.76
0.532	80.04
0.535	80.22
0.538	80.73
0.541	80.44
0.544	81.01
0.547	81.01
0.55	81.53
0.553	81.59
0.556	81.88
0.559	81.94
0.562	82.5
0.565	82.27
0.568	82.62
0.571	82.62
0.574	82.44
0.577	82.79
0.58	82.73
0.583	83.25
0.586	82.96
0.589	83.25
0.592	83.42
0.595	83.31
0.598	83.65
0.601	83.42
0.604	83.76
0.607	83.54
0.61	83.93
0.613	83.82
0.616	83.87
0.619	83.7
0.622	83.7
0.625	84.16
0.628	83.82
0.631	84.1
0.634	83.93
0.637	84.05
0.64	84.16
0.643	83.87
0.646	84.16
0.649	83.82
0.652	84.1
0.655	83.99
0.658	83.99
0.661	84.28
0.664	83.87
0.667	84.1
0.67	83.99
0.673	84.1
0.676	84.16
0.679	84.05
0.682	84.45
0.685	84.22
0.688	84.45
0.691	84.57
0.694	84.39
0.697	84.51
0.7	84.22
0.703	84.22
0.706	84.45
0.709	84.57
0.712	84.45
0.715	84.68
0.718	84.45
0.721	84.57
0.724	84.57
0.727	84.45
0.73	84.57
0.733	84.34
0.736	84.57
0.739	84.45
0.742	84.57
0.745	84.57
0.748	84.45
0.751	84.74
0.754	84.57
0.757	84.62
0.76	84.74
0.763	84.62
0.766	85.03
0.769	84.8
0.772	85.03
0.775	85.03
0.778	84.91
0.781	85.31
0.784	85.08
0.787	85.31
0.79	85.36
0.793	85.36
0.796	85.82
0.799	85.77
0.808	86.05
0.82	86.11
0.832	86.51
0.844	86.63
0.856	86.8
0.868	87.02
0.88	86.97
0.892	87.14
0.904	87.02
0.916	86.86
0.928	86.92
0.94	86.74
0.952	86.57
0.964	86.34
0.976	86.17
0.988	86.23
1	86.28
1.012	86.05
1.024	86.17
1.036	86
1.048	86
1.06	85.82
1.072	85.88
1.084	85.82
1.096	85.65
1.108	85.42
1.12	85.26
1.132	85.2
1.144	84.68
1.156	84.33
1.168	84.13
1.18	84.05
1.192	83.87
1.204	83.85
1.216	83.56
1.228	83.45
1.24	83.39
1.252	83.39
1.264	83.31
1.276	83.29
1.288	83.22
1.3	83.02
1.312	82.84
1.324	82.52
1.336	82.11
1.348	81.51
1.36	81.05
1.372	80.43
1.384	76.44
1.396	75.86
1.408	73.82
1.42	72.01
1.432	71.4
1.444	71.25
1.456	71.14
1.468	70.91
1.48	70.68
1.492	70.68
1.504	70.51
1.516	70.45
1.528	70.28
1.54	70.28
1.552	70.39
1.564	70.68
1.576	70.91
1.588	70.85
1.6	70.91
1.612	70.89
1.624	70.76
1.636	70.75
1.648	70.96
1.66	70.88
1.672	70.64
1.684	70.56
1.696	70.44
1.708	70.43
1.72	70.37
1.732	70.2
1.744	70.08
1.756	70.08
1.768	69.79
1.78	69.91
1.792	69.74
1.804	69.44
1.816	69.19
1.828	68.79
1.84	68.21
1.852	67.81
1.864	67
1.876	64.77
1.888	60.66
1.9	55.88
1.912	52.58
1.924	51.72
1.936	51.76
1.948	51.69
1.96	51.15
1.972	50.94
1.984	50.79
1.996	50.87
2.008	51
2.02	51.26
2.032	51.48
2.044	51.79
2.056	52.14
2.068	52.76
2.08	53.19
2.092	53.85
2.104	54.5
2.116	55.33
2.128	56.05
2.14	56.75
2.152	57.72
2.164	58.28
2.176	58.55
2.188	58.5
2.2	58.07
2.212	57.35
2.224	56.11
2.236	54.38
2.248	52.73
2.26	50.99
2.272	49.74
2.284	48.33
2.296	47.63
2.308	47.61
2.32	49.11
2.332	50.61
2.344	51.39
2.356	50.82
2.368	49.37
2.38	47.7
2.392	45.99
2.404	44.43
2.416	42.71
2.428	40.75
2.44	38.81
2.452	37.08
2.464	35.53
2.476	34.36
2.488	33.68
2.5	33.46
