Name: Chalcopyrite CuFeS_2
Type: Mineral
Class: Sulfides
Particle Size: 125-500um
Sample No.: S-4A
Owner: JPL
Origin: Canada, Quebec, Rouyn District.
Measurement: Hemispherical reflectance
X Units: Wavelength (micrometers)
Y Units: Reflectance (percent)
wavelength	value
2.5	86.3886
2.494	86.6562
2.488	86.7026
2.482	86.8935
2.476	87.1001
2.47	87.3916
2.464	87.6339
2.458	87.7255
2.452	87.9791
2.446	88.1172
2.44	88.2678
2.434	88.586
2.428	88.6272
2.422	88.7753
2.416	89.0021
2.41	89.2629
2.404	89.3048
2.398	89.4954
2.392	89.5686
2.386	89.7171
2.38	89.8445
2.374	89.9575
2.368	90.021
2.362	90.0841
2.356	90.2026
2.35	90.1917
2.344	90.2792
2.338	90.319
2.332	90.3226
2.326	90.3246
2.32	90.3357
2.314	90.2396
2.308	90.169
2.302	90.1255
2.296	90.1408
2.29	90.1909
2.284	90.1366
2.278	90.1504
2.272	90.105
2.266	90.1163
2.26	90.1225
2.254	90.1199
2.248	90.1563
2.242	90.1455
2.236	90.1385
2.23	90.2059
2.224	90.1736
2.218	90.2121
2.212	90.2494
2.206	90.1584
2.2	90.2077
2.194	90.3957
2.188	90.4552
2.182	90.7068
2.176	90.8874
2.17	91.0618
2.164	91.2232
2.158	91.4161
2.152	91.5139
2.146	91.6164
2.14	91.5087
2.134	91.5194
2.128	91.4838
2.122	91.3456
2.116	91.2277
2.11	91.079
2.104	90.8874
2.098	90.687
2.092	90.6831
2.086	90.4663
2.08	90.3121
2.074	90.1916
2.068	90.0146
2.062	89.8576
2.056	89.6831
2.05	89.4799
2.044	89.3024
2.038	89.0874
2.032	88.868
2.026	88.6067
2.02	88.2897
2.014	88.0487
2.008	87.7276
2.002	87.4809
1.996	87.1144
1.99	86.8584
1.984	86.4887
1.978	86.1853
1.972	85.8858
1.966	85.653
1.96	85.3263
1.954	85.0407
1.948	84.9153
1.942	84.6246
1.936	84.5743
1.93	84.5809
1.924	84.6469
1.918	84.9335
1.912	85.2265
1.906	85.7672
1.9	86.542
1.894	87.4465
1.888	88.4171
1.882	89.2623
1.876	89.8345
1.87	90.3597
1.864	90.5904
1.858	90.7538
1.852	90.8175
1.846	90.8769
1.84	90.8388
1.834	90.8759
1.828	90.8979
1.822	90.821
1.816	90.8413
1.81	90.8093
1.804	90.7935
1.798	90.7114
1.792	90.6927
1.786	90.6814
1.78	90.6567
1.774	90.654
1.768	90.681
1.762	90.7029
1.756	90.6751
1.75	90.7023
1.744	90.7937
1.738	90.7079
1.732	90.7541
1.726	90.7919
1.72	90.779
1.714	90.7982
1.708	90.7625
1.702	90.7128
1.696	90.7302
1.69	90.6916
1.684	90.6492
1.678	90.6458
1.672	90.5793
1.666	90.5439
1.66	90.6232
1.654	90.4867
1.648	90.4826
1.642	90.4461
1.636	90.3537
1.63	90.3508
1.624	90.2873
1.618	90.2894
1.612	90.2684
1.606	90.1778
1.6	90.0862
1.594	90.0821
1.588	90.0071
1.582	89.9755
1.576	89.9191
1.57	89.821
1.564	89.7874
1.558	89.6708
1.552	89.6016
1.546	89.5131
1.54	89.4117
1.534	89.3402
1.528	89.2824
1.522	89.1468
1.516	89.0201
1.51	88.9054
1.504	88.8198
1.498	88.6813
1.492	88.5733
1.486	88.4842
1.48	88.3333
1.474	88.1714
1.468	88.0918
1.462	87.9889
1.456	88.0126
1.45	87.9485
1.444	87.9181
1.438	87.8927
1.432	87.9499
1.426	87.9452
1.42	88.04
1.414	88.1019
1.408	88.1725
1.402	88.4185
1.396	88.5968
1.39	88.7115
1.384	88.7823
1.378	88.8044
1.372	88.795
1.366	88.7862
1.36	88.7115
1.354	88.6321
1.348	88.5214
1.342	88.504
1.336	88.4429
1.33	88.4619
1.324	88.3627
1.318	88.3262
1.312	88.2391
1.306	88.1705
1.3	88.0788
1.294	88.0875
1.288	87.9681
1.282	87.9027
1.276	87.8681
1.27	87.7667
1.264	87.6736
1.258	87.604
1.252	87.6039
1.246	87.5018
1.24	87.4318
1.234	87.3755
1.228	87.2861
1.222	87.2443
1.216	87.0861
1.21	87.0824
1.204	86.9905
1.198	86.9313
1.192	86.8869
1.186	86.7607
1.18	86.6908
1.174	86.6308
1.168	86.5453
1.162	86.5028
1.156	86.4449
1.15	86.2882
1.144	86.2694
1.138	86.2073
1.132	86.1134
1.126	86.0749
1.12	85.9757
1.114	85.8854
1.108	85.7958
1.102	85.7102
1.096	85.6049
1.09	85.5443
1.084	85.4907
1.078	85.332
1.072	85.179
1.066	85.2386
1.06	85.011
1.054	84.9165
1.048	84.8083
1.042	84.7452
1.036	84.6299
1.03	84.5015
1.024	84.3618
1.018	84.3146
1.012	84.1838
1.006	84.0757
1	83.9612
0.994	83.8007
0.988	83.6324
0.982	83.5138
0.976	83.3757
0.97	83.2007
0.964	83.024
0.958	82.8502
0.952	82.6224
0.946	82.4216
0.94	82.1928
0.934	81.9529
0.928	81.6855
0.922	81.4027
0.916	81.1159
0.91	80.7621
0.904	80.4023
0.898	80.0669
0.892	79.7005
0.886	79.2413
0.88	78.7514
0.874	78.2689
0.868	77.6912
0.862	77.105
0.856	76.6399
0.85	75.7817
0.844	74.8657
0.838	73.8339
0.832	72.6125
0.826	71.107
0.82	69.2581
0.814	66.9969
0.808	64.1656
0.802	60.9382
0.796	57.4282
0.79	53.9686
0.784	50.8357
0.778	48.2181
0.772	46.0894
0.766	44.4189
0.76	43.0931
0.754	41.9303
0.748	40.8966
0.742	39.9943
0.736	39.1641
0.73	38.4638
0.724	37.8701
0.718	37.3733
0.712	36.9733
0.706	36.6581
0.7	36.418
0.694	36.2282
0.688	36.0783
0.682	35.9726
0.676	35.8865
0.67	35.829
0.664	35.77
0.658	35.7353
0.652	35.6929
0.646	35.6594
0.64	35.6403
0.634	35.6295
0.628	35.638
0.622	35.6611
0.616	35.7013
0.61	35.7525
0.604	35.8088
0.598	35.8823
0.592	35.9582
0.586	36.0442
0.58	36.1321
0.574	36.2234
0.568	36.3193
0.562	36.4089
0.556	36.5386
0.55	36.6399
0.544	36.7535
0.538	36.8613
0.532	36.9665
0.526	37.0751
0.52	37.1789
0.514	37.2766
0.508	37.3828
0.502	37.493
0.496	37.6135
0.49	37.7314
0.484	37.8406
0.478	37.878
0.472	37.9325
0.466	38.0049
0.46	38.0786
0.454	38.1542
0.448	38.2191
0.442	38.2829
0.436	38.3475
0.43	38.4074
0.424	38.497
0.418	38.607
0.412	38.7297
0.406	38.8754
0.4	39.0366
