Name: Ferroaxinite Ca_2Fe^2+Al_2BSi_4O_15(OH)
Type: Mineral
Class: Silicates
Subclass: Cyclosilicates
Particle Size: 125-500um
Sample No.: CS-4A
Owner: JPL
Wavelength Range: VNIR-SWIR
Origin: Mexico, Baja California Norte, Los Gavelontos
Measurement: Hemispherical reflectance
X Units: Wavelength (micrometers)
Y Units: Reflectance (percent)
wavelength	value
0.4	12.86
0.403	13.34
0.406	13.74
0.409	13.09
0.412	10.69
0.415	11.04
0.418	11.84
0.421	12.05
0.424	12.06
0.427	12.04
0.43	12.11
0.433	12
0.436	11.79
0.439	12.17
0.442	12.75
0.445	12.97
0.448	13.4
0.451	13.66
0.454	13.86
0.457	13.99
0.46	14.11
0.463	14.07
0.466	14.18
0.469	14.4
0.472	14.4
0.475	14.47
0.478	14.66
0.481	14.59
0.484	14.36
0.487	14.27
0.49	14.37
0.493	14.14
0.496	14.15
0.499	14.22
0.502	14.18
0.505	14.08
0.508	14.1
0.511	14.1
0.514	14.02
0.517	13.96
0.52	14.16
0.523	14.18
0.526	14.1
0.529	14.11
0.532	14.13
0.535	14.22
0.538	14.24
0.541	14.19
0.544	14.31
0.547	14.52
0.55	14.56
0.553	14.61
0.556	14.74
0.559	14.9
0.562	15.11
0.565	15.24
0.568	15.46
0.571	15.6
0.574	15.71
0.577	15.89
0.58	16.1
0.583	16.23
0.586	16.35
0.589	16.7
0.592	16.95
0.595	17.06
0.598	17.35
0.601	17.65
0.604	18.13
0.607	18.34
0.61	18.54
0.613	18.9
0.616	19.2
0.619	19.44
0.622	19.66
0.625	19.95
0.628	20.21
0.631	20.63
0.634	20.84
0.637	21.14
0.64	21.44
0.643	21.83
0.646	22.17
0.649	22.45
0.652	22.72
0.655	23.22
0.658	23.45
0.661	23.78
0.664	24.21
0.667	24.63
0.67	25.02
0.673	25.34
0.676	25.72
0.679	26.23
0.682	26.58
0.685	27
0.688	27.39
0.691	27.85
0.694	28.27
0.697	28.65
0.7	28.91
0.703	29.64
0.706	29.94
0.709	30.35
0.712	30.86
0.715	31.3
0.718	31.55
0.721	32.13
0.724	32.6
0.727	33.07
0.73	33.31
0.733	33.78
0.736	34.35
0.739	34.63
0.742	34.95
0.745	35.49
0.748	35.9
0.751	36.14
0.754	36.64
0.757	36.96
0.76	37.26
0.763	37.61
0.766	38.01
0.769	38.19
0.772	38.56
0.775	38.94
0.778	39.2
0.781	39.21
0.784	39.43
0.787	39.74
0.79	39.87
0.793	39.87
0.796	39.98
0.799	39.93
0.808	39.81
0.82	38.61
0.832	36.56
0.844	33.77
0.856	30.49
0.868	26.76
0.88	23.21
0.892	19.84
0.904	16.77
0.916	14.2
0.928	12.07
0.94	10.23
0.952	8.8
0.964	7.73
0.976	6.88
0.988	6.24
1	5.82
1.012	5.36
1.024	5.09
1.036	4.74
1.048	4.56
1.06	4.38
1.072	4.2
1.084	4.1
1.096	4.01
1.108	3.95
1.12	3.85
1.132	3.82
1.144	3.79
1.156	3.72
1.168	3.68
1.18	3.69
1.192	3.68
1.204	3.73
1.216	3.78
1.228	3.8
1.24	3.88
1.252	4.03
1.264	4.09
1.276	4.22
1.288	4.35
1.3	4.5
1.312	4.79
1.324	5.17
1.336	5.58
1.348	6.03
1.36	6.7
1.372	7.58
1.384	8.7
1.396	9.92
1.408	11.44
1.42	13.24
1.432	15.07
1.444	16.9
1.456	18.66
1.468	20.17
1.48	21.16
1.492	21.79
1.504	21.91
1.516	21.63
1.528	21.02
1.54	20.55
1.552	20.21
1.564	19.9
1.576	19.42
1.588	18.6
1.6	17.89
1.612	16.97
1.624	16.11
1.636	15.35
1.648	14.56
1.66	13.8
1.672	13.14
1.684	12.43
1.696	11.8
1.708	11.21
1.72	10.61
1.732	10.17
1.744	9.65
1.756	9.3
1.768	8.82
1.78	8.41
1.792	8.13
1.804	7.83
1.816	7.52
1.828	7.28
1.84	7.1
1.852	6.86
1.864	6.64
1.876	6.45
1.888	6.3
1.9	6.17
1.912	5.94
1.924	5.88
1.936	5.75
1.948	5.64
1.96	5.62
1.972	5.56
1.984	5.42
1.996	5.5
2.008	5.47
2.02	5.4
2.032	5.44
2.044	5.44
2.056	5.43
2.068	5.39
2.08	5.45
2.092	5.42
2.104	5.42
2.116	5.42
2.128	5.53
2.14	5.65
2.152	5.67
2.164	5.66
2.176	5.75
2.188	5.74
2.2	5.89
2.212	6.01
2.224	6.02
2.236	6.1
2.248	5.95
2.26	5.79
2.272	5.56
2.284	5.33
2.296	5.06
2.308	4.95
2.32	5.19
2.332	5.85
2.344	6.6
2.356	6.95
2.368	7.42
2.38	8.46
2.392	9.67
2.404	10.76
2.416	11.72
2.428	12.61
2.44	13.31
2.452	13.89
2.464	14.56
2.476	14.95
2.488	15.39
2.5	15.81
