Name: Flat Black Paint
Type: Manmade materials
Class: General Construction Materials
Subclass: Paints
Particle Size: Solid
Sample No.: 1949
Owner: JPL
Origin: The Testor Corp., 620 Buckbee St., Rockford, IL 61104
Description: Flat black custom (FS37038) spray enamel paint
Measurement: Hemispherical reflectance
X Units: Wavelength (micrometers)
Y Units: Reflectance (percent)
wavelength	value
14.0131	7.16863
13.7895	7.67721
13.5729	7.12593
13.363	7.08375
13.1595	8.25525
12.9621	8.08887
12.7705	6.66983
12.5845	7.10065
12.4039	7.53076
12.2284	6.89934
12.0578	7.97504
11.8918	8.23155
11.7304	8.50734
11.5733	8.38411
11.4203	8.27315
11.2714	7.84341
11.1263	7.9335
10.9848	8.04068
10.8469	7.96956
10.7125	7.93251
10.5813	7.85026
10.4533	7.9027
10.3284	8.11382
10.2064	8.54361
10.0872	9.34744
9.97084	10.2281
9.8571	10.7068
9.74592	8.57529
9.63724	6.44996
9.53094	5.77836
9.42697	5.75798
9.32524	5.74269
9.22568	5.77763
9.12823	6.15431
9.03281	6.45427
8.93937	6.25518
8.84784	5.95083
8.75816	5.81509
8.67029	6.20386
8.58416	6.02672
8.49973	5.92369
8.41693	5.83687
8.33574	6.03838
8.2561	5.99975
8.17797	6.14086
8.10131	6.28535
8.02606	6.48533
7.9522	6.23044
7.87969	5.96907
7.80849	5.80189
7.73856	5.05081
7.66987	5.02838
7.60239	5.17449
7.5361	5.56116
7.47094	5.69072
7.4069	5.84001
7.34396	5.87183
7.28207	5.85268
7.22122	5.74481
7.16137	5.85965
7.10251	5.95323
7.04461	6.09505
6.98765	6.03273
6.9316	5.94931
6.87644	5.72168
6.82215	5.53153
6.76871	5.70579
6.71611	5.74834
6.66431	6.01266
6.61331	5.76329
6.56308	6.15521
6.51361	6.28061
6.46488	6.35788
6.41687	6.45672
6.36957	6.34976
6.32297	6.11516
6.27704	6.24669
6.23177	5.97511
6.18715	6.27911
6.14317	6.36068
6.0998	6.27772
6.05705	6.39621
6.01489	6.37672
5.97331	6.45628
5.9323	6.50759
5.89186	6.45992
5.85196	6.62738
5.81259	6.53101
5.77376	6.01934
5.73543	4.84811
5.69762	4.7593
5.6603	5.39949
5.62347	5.66623
5.5871	5.87411
5.55121	5.80493
5.51578	5.92487
5.4808	5.89948
5.44625	6.03382
5.41214	5.95037
5.37846	6.0472
5.34519	5.99655
5.31233	6.07402
5.27987	5.98568
5.24781	6.1009
5.21613	6.02773
5.18483	6.11755
5.15391	6.04188
5.12335	6.09316
5.09316	6.12207
5.06331	6.0056
5.03382	5.99756
5.00467	6.15253
4.97585	6.11675
4.94736	6.15245
4.9192	6.1005
4.89135	6.12858
4.86382	6.14604
4.8366	6.11939
4.80968	6.08618
4.78306	6.01764
4.75673	6.10679
4.73069	6.0839
4.70493	6.11211
4.67945	6.18905
4.65425	6.07613
4.62932	6.06481
4.60465	6.15026
4.58024	6.12212
4.55609	6.10812
4.5322	6.10166
4.50855	6.0563
4.48515	6.05987
4.46199	6.08562
4.43907	6.14885
4.41638	6.07935
4.39393	6.09759
4.3717	5.92251
4.34969	6.09507
4.32791	6.13694
4.30634	6.01469
4.28499	6.07173
4.26384	5.98861
4.24291	6.08277
4.22218	6.11261
4.20165	6.00861
4.18132	5.98193
4.16118	6.07795
4.14124	5.94771
4.12149	6.00876
4.10192	5.99668
4.08255	5.98789
4.06335	6.05808
4.04433	6.08511
4.02549	6.05623
4.00683	6.07498
3.98833	5.97369
3.97001	5.97111
3.95186	6.00216
3.93386	5.9869
3.91604	6.05833
3.89837	5.94392
3.88086	6.07131
3.86351	5.99704
3.84631	6.00905
3.82927	5.96512
3.81238	6.03142
3.79563	6.10499
3.77903	5.96243
3.76258	6.03968
3.74627	6.00505
3.7301	5.96974
3.71406	5.97396
3.69817	5.97094
3.68241	6.04135
3.66678	6.10129
3.65129	6.00854
3.63593	6.05449
3.62069	5.82575
3.60559	6.08075
3.59061	6.10291
3.57575	6.16265
3.56101	6.10614
3.5464	6.09882
3.5319	6.25945
3.51753	6.22509
3.50327	5.97808
3.48912	5.83473
3.47509	5.88903
3.46117	6.02281
3.44736	5.99977
3.43367	6.10998
3.42007	5.84933
3.40659	5.45289
3.39322	5.49566
3.37994	5.52802
3.36678	5.5282
3.35371	5.59027
3.34074	5.54526
3.32788	5.68873
3.31511	5.64086
3.30244	5.60834
3.28987	5.68374
3.27739	5.63539
3.26501	5.72206
3.25272	5.65973
3.24052	5.73775
3.22841	5.72289
3.2164	5.68203
3.20447	5.83131
3.19263	5.84981
3.18088	5.79397
3.16921	5.83537
3.15763	5.72409
3.14614	5.78859
3.13472	5.90387
3.12339	5.95938
3.11214	5.88019
3.10098	5.80745
3.08989	5.89311
3.07888	5.82545
3.06795	5.81614
3.0571	5.89512
3.04632	5.7829
3.03562	5.78782
3.02499	5.76823
3.01444	5.99308
3.00396	5.75918
2.99355	6.04079
2.98322	5.66244
2.97295	5.64481
2.96276	5.96065
2.95264	5.7368
2.94258	5.85563
2.9326	5.67757
2.92268	5.75899
2.91283	5.85636
2.90304	5.81121
2.89332	5.75074
2.88367	5.72786
2.87408	5.72656
2.86455	5.79757
2.85508	5.81327
2.84568	5.75672
2.83634	5.44939
2.82706	5.62893
2.81784	5.87788
2.80869	5.76408
2.79959	5.83709
2.79055	5.75465
2.78156	5.89502
2.77264	5.74301
2.76377	5.66118
2.75496	5.6276
2.7462	5.59246
2.7375	5.81994
2.72886	5.6136
2.72027	5.70465
2.71173	5.85865
2.70325	5.88269
2.69482	5.73133
2.68644	5.70723
2.67812	5.52377
2.66984	5.86569
2.66162	5.74578
2.65345	5.80121
2.64532	5.81139
2.63725	5.58542
2.62923	5.49858
2.62125	5.76086
2.61332	5.86071
2.60544	5.74532
2.59761	5.71441
2.58983	5.77213
2.58209	5.66406
2.5744	5.77624
2.56675	5.75898
2.55915	5.7733
2.55159	5.65716
2.54408	5.74669
2.53661	5.69221
2.52919	5.7329
2.52181	5.64721
2.51447	5.89809
2.50717	5.81199
2.49992	5.62708
2.49271	5.83828
2.48554	5.93142
2.47841	5.72685
2.47132	5.62893
2.46427	5.69798
2.45727	5.72774
2.4503	5.59204
2.44337	5.74343
2.43648	5.53852
2.42963	5.8847
2.42282	5.6017
2.41605	5.85008
2.40931	5.70934
2.40261	5.63129
2.39595	5.65541
2.38932	5.80895
2.38274	5.9021
2.37618	5.68058
2.36967	5.79597
2.36319	5.65963
2.35674	5.63142
2.35033	5.62935
2.34396	5.67672
2.33762	5.62181
2.33131	5.72901
2.32504	5.78295
2.3188	5.70686
2.31259	5.90145
2.30642	5.54392
2.30028	5.77908
2.29417	5.49293
2.2881	5.71772
2.28206	5.54643
2.27605	5.90008
2.27007	5.74421
2.26412	5.59175
2.2582	5.63856
2.25232	5.8032
2.24646	5.80969
2.24064	5.77331
2.23484	5.69954
2.22908	5.65826
2.22334	5.72277
2.21764	5.74539
2.21196	6.0632
2.20631	5.44346
2.20069	5.74118
2.1951	5.80277
2.18954	5.7859
2.18401	5.54684
2.1785	5.93688
2.17302	5.75228
2.16757	5.85395
2.16215	5.70561
2.15675	5.91831
2.15138	5.71677
2.14604	5.83776
2.14072	5.63209
2.13543	5.70721
2.13017	5.77447
2.12493	5.7149
2.11972	5.61708
2.11453	5.95719
2.10937	5.81387
2.10423	5.68365
2.09912	5.64536
2.09404	5.33099
2.08897	5.64584
2.08394	5.60545
2.07892	5.70221
2.07393	5.36407
2.06897	5.34791
2.06403	5.66734
2.05911	5.92012
2.05421	5.78825
2.04934	5.84871
2.04449	5.85771
2.03967	5.59328
2.03486	5.87144
2.03008	5.52822
2.02533	5.44367
2.02059	5.63701
2.01588	5.56881
2.01118	5.76187
2.00651	5.3669
2.00187	5.70832
