Name: Sodalite Na_8Al_6Si_6O_24Cl_2
Type: Mineral
Class: Silicates
Subclass: Tectosilicates
Particle Size: 0-45um
Sample No.: TS-10A
Owner: JPL
Wavelength Range: VNIR-SWIR
Origin: Canada, Ontario, Hastings County, Bancroft
Measurement: Hemispherical reflectance
X Units: Wavelength (micrometers)
Y Units: Reflectance (percent)
wavelength	value
0.4	59.65
0.403	60.28
0.406	60.74
0.409	60.98
0.412	61.26
0.415	61.58
0.418	62.01
0.421	62.01
0.424	62.33
0.427	62.57
0.43	62.77
0.433	62.97
0.436	63.32
0.439	63.34
0.442	63.5
0.445	63.56
0.448	63.54
0.451	63.64
0.454	63.75
0.457	63.9
0.46	63.87
0.463	63.84
0.466	63.84
0.469	63.79
0.472	63.79
0.475	63.75
0.478	63.64
0.481	63.62
0.484	63.57
0.487	63.67
0.49	63.46
0.493	63.31
0.496	63.27
0.499	63.24
0.502	63.1
0.505	63.06
0.508	63.08
0.511	62.88
0.514	62.9
0.517	62.77
0.52	62.73
0.523	62.59
0.526	62.65
0.529	62.44
0.532	62.45
0.535	62.09
0.538	62.17
0.541	62.13
0.544	62.01
0.547	61.79
0.55	61.82
0.553	61.88
0.556	61.71
0.559	61.51
0.562	61.88
0.565	61.92
0.568	61.63
0.571	61.47
0.574	61.16
0.577	61.1
0.58	61.04
0.583	60.96
0.586	60.98
0.589	61
0.592	60.9
0.595	60.86
0.598	61.01
0.601	60.9
0.604	61.18
0.607	61.22
0.61	61.25
0.613	61.34
0.616	61.4
0.619	61.61
0.622	61.63
0.625	61.69
0.628	61.77
0.631	61.86
0.634	61.87
0.637	61.92
0.64	62.08
0.643	61.96
0.646	62.13
0.649	62.32
0.652	62.57
0.655	62.53
0.658	62.82
0.661	62.94
0.664	63.23
0.667	63.42
0.67	63.71
0.673	63.85
0.676	64.24
0.679	64.55
0.682	64.98
0.685	65.35
0.688	65.79
0.691	66.42
0.694	66.92
0.697	67.33
0.7	67.56
0.703	68.52
0.706	69.07
0.709	69.72
0.712	70.27
0.715	70.72
0.718	71.16
0.721	71.75
0.724	72.1
0.727	72.45
0.73	72.71
0.733	73.17
0.736	73.33
0.739	73.69
0.742	73.85
0.745	74.03
0.748	74.31
0.751	74.48
0.754	74.66
0.757	74.64
0.76	74.79
0.763	74.94
0.766	75.15
0.769	75.02
0.772	75.17
0.775	75.28
0.778	75.55
0.781	75.37
0.784	75.51
0.787	75.69
0.79	75.66
0.793	75.62
0.796	75.76
0.799	75.82
0.808	75.87
0.82	75.95
0.832	76.08
0.844	76.18
0.856	76.37
0.868	76.34
0.88	76.38
0.892	76.24
0.904	76.24
0.916	76.3
0.928	76.27
0.94	76.17
0.952	76.27
0.964	76.32
0.976	76.28
0.988	76.13
1	76.03
1.012	75.93
1.024	75.98
1.036	75.93
1.048	76.03
1.06	75.93
1.072	75.8
1.084	75.79
1.096	75.92
1.108	75.93
1.12	76.16
1.132	76.26
1.144	76.28
1.156	76.28
1.168	76.42
1.18	76.51
1.192	76.68
1.204	76.86
1.216	76.9
1.228	77.04
1.24	77
1.252	77.06
1.264	77.16
1.276	77.16
1.288	77.31
1.3	77.38
1.312	77.45
1.324	77.45
1.336	77.44
1.348	77.4
1.36	77.53
1.372	77.52
1.384	77.4
1.396	77.4
1.408	77.35
1.42	77.45
1.432	77.45
1.444	77.49
1.456	77.75
1.468	77.74
1.48	77.78
1.492	77.95
1.504	78.14
1.516	78.21
1.528	78.29
1.54	78.37
1.552	78.38
1.564	78.44
1.576	78.52
1.588	78.6
1.6	78.76
1.612	78.97
1.624	78.96
1.636	79.08
1.648	79.23
1.66	79.24
1.672	79.32
1.684	79.43
1.696	79.48
1.708	79.54
1.72	79.63
1.732	79.57
1.744	79.5
1.756	79.62
1.768	79.67
1.78	79.79
1.792	79.74
1.804	79.8
1.816	79.85
1.828	79.82
1.84	79.76
1.852	79.78
1.864	79.66
1.876	79.6
1.888	79.29
1.9	78.87
1.912	78.36
1.924	78.37
1.936	78.38
1.948	78.55
1.96	78.71
1.972	78.96
1.984	79.09
1.996	79.44
2.008	79.56
2.02	79.86
2.032	80.01
2.044	80.1
2.056	80.07
2.068	80.18
2.08	80.18
2.092	80.27
2.104	80.39
2.116	80.56
2.128	80.47
2.14	80.37
2.152	80.32
2.164	80.14
2.176	80.02
2.188	79.82
2.2	79.65
2.212	79.51
2.224	79.47
2.236	79.36
2.248	79.28
2.26	78.93
2.272	78.86
2.284	78.53
2.296	78.28
2.308	78.1
2.32	77.99
2.332	77.95
2.344	78.14
2.356	78.55
2.368	78.76
2.38	79.04
2.392	79
2.404	78.89
2.416	78.68
2.428	78.37
2.44	77.91
2.452	77.48
2.464	76.81
2.476	76.22
2.488	76.09
2.5	75.95
