Name: Plumbojarosite PbFe_3^3+(SO_4)_4(OH)_12
Type: Mineral
Class: Sulfates
Particle Size: 0-45um
Sample No.: SO-7B
Owner: JPL
Wavelength Range: VNIR-SWIR
Origin: Mexico, Hidalgo, Zimapan, Lomo De Toro Mine
Measurement: Hemispherical reflectance
X Units: Wavelength (micrometers)
Y Units: Reflectance (percent)
wavelength	value
0.4	4.25
0.403	4.86
0.406	5.26
0.409	5.8
0.412	6.17
0.415	6.7
0.418	7.11
0.421	7.37
0.424	7.72
0.427	7.94
0.43	8.29
0.433	8.4
0.436	8.62
0.439	9.04
0.442	9.59
0.445	10.43
0.448	11.15
0.451	12.06
0.454	12.81
0.457	13.42
0.46	13.78
0.463	14.5
0.466	15.04
0.469	15.49
0.472	15.91
0.475	16.58
0.478	17.17
0.481	17.79
0.484	18.42
0.487	19.12
0.49	19.79
0.493	20.46
0.496	21.28
0.499	22.08
0.502	22.88
0.505	23.78
0.508	24.54
0.511	25.65
0.514	26.51
0.517	27.5
0.52	28.55
0.523	29.52
0.526	30.68
0.529	31.74
0.532	32.82
0.535	33.9
0.538	35.08
0.541	36.2
0.544	37.32
0.547	38.4
0.55	39.37
0.553	40.54
0.556	41.45
0.559	42.25
0.562	43.59
0.565	44.38
0.568	45.31
0.571	45.88
0.574	46.57
0.577	47.24
0.58	47.91
0.583	48.47
0.586	49.25
0.589	49.82
0.592	50.34
0.595	50.95
0.598	51.55
0.601	52.12
0.604	52.92
0.607	53.23
0.61	53.88
0.613	54.43
0.616	55.07
0.619	55.41
0.622	55.98
0.625	56.52
0.628	57.09
0.631	57.56
0.634	58.07
0.637	58.57
0.64	58.91
0.643	59.49
0.646	59.98
0.649	60.46
0.652	60.75
0.655	61.32
0.658	61.74
0.661	62.2
0.664	62.68
0.667	62.99
0.67	63.45
0.673	63.76
0.676	64.21
0.679	64.6
0.682	65
0.685	65.45
0.688	65.65
0.691	66.08
0.694	66.38
0.697	66.7
0.7	66.77
0.703	67.41
0.706	67.71
0.709	67.85
0.712	68.16
0.715	68.42
0.718	68.56
0.721	68.81
0.724	68.9
0.727	68.95
0.73	69.17
0.733	69.1
0.736	69.19
0.739	69.12
0.742	69.16
0.745	69.12
0.748	69.09
0.751	68.82
0.754	68.8
0.757	68.51
0.76	68.38
0.763	68.18
0.766	67.97
0.769	67.76
0.772	67.39
0.775	67.2
0.778	66.92
0.781	66.59
0.784	66.38
0.787	65.95
0.79	65.59
0.793	65.35
0.796	65.01
0.799	64.86
0.808	63.78
0.82	62.52
0.832	61.33
0.844	60.36
0.856	59.59
0.868	58.83
0.88	58.26
0.892	57.87
0.904	57.55
0.916	57.46
0.928	57.46
0.94	57.59
0.952	57.87
0.964	58.27
0.976	58.67
0.988	59.24
1	59.75
1.012	60.53
1.024	61.25
1.036	62.13
1.048	62.96
1.06	63.9
1.072	64.85
1.084	65.84
1.096	66.83
1.108	67.88
1.12	68.99
1.132	70.03
1.144	71
1.156	71.97
1.168	72.92
1.18	73.79
1.192	74.8
1.204	75.69
1.216	76.49
1.228	77.23
1.24	78.05
1.252	78.77
1.264	79.37
1.276	80.01
1.288	80.64
1.3	81.19
1.312	81.64
1.324	82.03
1.336	82.42
1.348	82.86
1.36	83.14
1.372	83.46
1.384	83.67
1.396	83.81
1.408	83.77
1.42	83.77
1.432	83.79
1.444	83.33
1.456	82.8
1.468	82.37
1.48	82.4
1.492	82.88
1.504	83.43
1.516	83.55
1.528	83.6
1.54	83.67
1.552	83.91
1.564	84.13
1.576	84.36
1.588	84.58
1.6	84.79
1.612	84.86
1.624	85.03
1.636	85.02
1.648	85.24
1.66	85.38
1.672	85.53
1.684	85.59
1.696	85.69
1.708	85.77
1.72	85.7
1.732	85.61
1.744	85.57
1.756	85.44
1.768	85.42
1.78	85.26
1.792	85.23
1.804	85.02
1.816	84.56
1.828	83.69
1.84	83.16
1.852	83.16
1.864	83.2
1.876	83.32
1.888	83.66
1.9	83.87
1.912	83.53
1.924	83.2
1.936	82.97
1.948	82.86
1.96	82.92
1.972	83.06
1.984	83.15
1.996	83.11
2.008	83.03
2.02	82.99
2.032	82.85
2.044	82.73
2.056	82.62
2.068	82.85
2.08	82.95
2.092	82.99
2.104	83.13
2.116	83.07
2.128	82.85
2.14	82.46
2.152	81.85
2.164	81.2
2.176	80.5
2.188	79.59
2.2	78.7
2.212	77.57
2.224	76.08
2.236	74.29
2.248	72.75
2.26	72.08
2.272	71.6
2.284	71.56
2.296	72.13
2.308	73.33
2.32	74.73
2.332	75.64
2.344	76.02
2.356	75.75
2.368	74.97
2.38	73.82
2.392	72.44
2.404	71.56
2.416	71.26
2.428	71.41
2.44	71.86
2.452	72.2
2.464	72.38
2.476	72.07
2.488	71.69
2.5	71.12
