Name: Chlorite
Type: Mineral
Class: Silicates
Subclass: Phyllosilicates
Particle Size: 45-125um
Sample No.: PS-12E
Owner: JPL
Origin: USA, Vermont.
Measurement: Hemispherical reflectance
X Units: Wavelength (micrometers)
Y Units: Reflectance (percent)
wavelength	value
2.5	25.7816
2.494	25.4345
2.488	25.6295
2.482	25.7749
2.476	25.7762
2.47	26.1385
2.464	26.6554
2.458	27.1986
2.452	27.9164
2.446	28.4952
2.44	28.9653
2.434	29.4204
2.428	29.8185
2.422	30.1917
2.416	30.3661
2.41	30.1826
2.404	29.721
2.398	29.216
2.392	28.8144
2.386	28.5028
2.38	28.2606
2.374	27.7523
2.368	26.8853
2.362	25.7706
2.356	24.6082
2.35	23.5786
2.344	22.8114
2.338	22.3494
2.332	22.2247
2.326	22.5003
2.32	23.0216
2.314	23.6203
2.308	24.2314
2.302	24.5708
2.296	24.9344
2.29	25.5553
2.284	26.7172
2.278	28.0024
2.272	28.7949
2.266	28.9135
2.26	28.582
2.254	27.9115
2.248	27.9582
2.242	29.1535
2.236	31.747
2.23	34.2278
2.224	36.2154
2.218	37.5284
2.212	38.3904
2.206	39.0319
2.2	39.5009
2.194	39.9341
2.188	40.3118
2.182	40.607
2.176	40.9803
2.17	41.2107
2.164	41.4866
2.158	41.5718
2.152	41.6896
2.146	41.8463
2.14	41.843
2.134	41.7337
2.128	41.5604
2.122	41.352
2.116	41.2618
2.11	41.1162
2.104	41.0745
2.098	41.1119
2.092	41.3009
2.086	41.3183
2.08	41.2509
2.074	41.1526
2.068	41.0265
2.062	40.8952
2.056	40.7255
2.05	40.4571
2.044	40.1967
2.038	39.7823
2.032	39.2944
2.026	38.7361
2.02	37.9981
2.014	37.3651
2.008	36.9609
2.002	36.6433
1.996	36.4682
1.99	36.4234
1.984	36.4582
1.978	36.6525
1.972	36.9417
1.966	37.1722
1.96	37.356
1.954	37.3177
1.948	37.5105
1.942	37.8624
1.936	38.0505
1.93	38.1335
1.924	38.2692
1.918	38.2766
1.912	38.243
1.906	38.1531
1.9	38.0021
1.894	37.819
1.888	37.4959
1.882	37.2069
1.876	37.1865
1.87	37.2278
1.864	37.427
1.858	37.4113
1.852	37.5209
1.846	37.6475
1.84	37.6216
1.834	37.6944
1.828	37.6393
1.822	37.6546
1.816	37.5437
1.81	37.4761
1.804	37.3713
1.798	37.2826
1.792	37.1596
1.786	36.9954
1.78	36.8295
1.774	36.66
1.768	36.5405
1.762	36.3337
1.756	36.2131
1.75	35.9898
1.744	35.8374
1.738	35.6405
1.732	35.4429
1.726	35.2175
1.72	35.0419
1.714	34.8314
1.708	34.5467
1.702	34.3921
1.696	34.0706
1.69	33.996
1.684	33.6298
1.678	33.4331
1.672	33.2359
1.666	32.9283
1.66	32.7147
1.654	32.4594
1.648	32.1683
1.642	31.9322
1.636	31.5985
1.63	31.325
1.624	31.0306
1.618	30.7278
1.612	30.4166
1.606	30.1221
1.6	29.8186
1.594	29.46
1.588	29.1147
1.582	28.8178
1.576	28.4584
1.57	28.1709
1.564	27.8017
1.558	27.5353
1.552	27.1978
1.546	27.0224
1.54	26.7437
1.534	26.5602
1.528	26.393
1.522	26.1647
1.516	26.044
1.51	25.9313
1.504	25.7445
1.498	25.622
1.492	25.4024
1.486	25.1154
1.48	24.868
1.474	24.5715
1.468	24.2153
1.462	23.799
1.456	23.4573
1.45	23.0947
1.444	22.8667
1.438	22.6648
1.432	22.6185
1.426	22.5841
1.42	22.2132
1.414	21.3345
1.408	21.0588
1.402	20.8397
1.396	19.7164
1.39	19.5977
1.384	21.1856
1.378	21.2171
1.372	20.9641
1.366	20.7525
1.36	20.3594
1.354	20.1623
1.348	19.8135
1.342	19.5768
1.336	19.3348
1.33	19.047
1.324	18.6821
1.318	18.4711
1.312	18.2898
1.306	17.9334
1.3	17.6891
1.294	17.4741
1.288	17.1596
1.282	16.899
1.276	16.6369
1.27	16.3988
1.264	16.1998
1.258	15.8486
1.252	15.6359
1.246	15.3761
1.24	15.1865
1.234	14.9385
1.228	14.7266
1.222	14.499
1.216	14.2618
1.21	14.0266
1.204	13.8075
1.198	13.6342
1.192	13.4434
1.186	13.3013
1.18	13.0397
1.174	12.9059
1.168	12.7945
1.162	12.6886
1.156	12.5136
1.15	12.3739
1.144	12.2714
1.138	12.2329
1.132	12.0854
1.126	11.9715
1.12	11.893
1.114	11.8423
1.108	11.7761
1.102	11.7105
1.096	11.7265
1.09	11.6059
1.084	11.5325
1.078	11.6512
1.072	11.5706
1.066	11.5343
1.06	11.5831
1.054	11.4455
1.048	11.5089
1.042	11.4445
1.036	11.4826
1.03	11.4656
1.024	11.4117
1.018	11.3736
1.012	11.3241
1.006	11.2472
1	11.2328
0.994	11.1234
0.988	11.0472
0.982	10.9385
0.976	10.8639
0.97	10.6952
0.964	10.6096
0.958	10.4839
0.952	10.3728
0.946	10.2635
0.94	10.0848
0.934	10.0199
0.928	9.89438
0.922	9.81271
0.916	9.78118
0.91	9.6508
0.904	9.63328
0.898	9.60891
0.892	9.60929
0.886	9.55503
0.88	9.63384
0.874	9.63087
0.868	9.75628
0.862	9.81809
0.856	10.1574
0.85	10.2411
0.844	10.3508
0.838	10.4421
0.832	10.5328
0.826	10.6184
0.82	10.6815
0.814	10.7382
0.808	10.7521
0.802	10.7403
0.796	10.6931
0.79	10.6037
0.784	10.477
0.778	10.3473
0.772	10.1818
0.766	10.023
0.76	9.84742
0.754	9.69564
0.748	9.55594
0.742	9.42388
0.736	9.32092
0.73	9.25412
0.724	9.19273
0.718	9.15535
0.712	9.1324
0.706	9.1354
0.7	9.17684
0.694	9.24262
0.688	9.33788
0.682	9.44761
0.676	9.58472
0.67	9.74456
0.664	9.91146
0.658	10.1069
0.652	10.3127
0.646	10.5343
0.64	10.7704
0.634	11.0169
0.628	11.2733
0.622	11.5473
0.616	11.815
0.61	12.0966
0.604	12.379
0.598	12.6704
0.592	12.9665
0.586	13.2459
0.58	13.5229
0.574	13.7752
0.568	14.0103
0.562	14.2153
0.556	14.3854
0.55	14.5222
0.544	14.6145
0.538	14.6905
0.532	14.7833
0.526	14.9199
0.52	15.0357
0.514	15.0639
0.508	14.9856
0.502	14.761
0.496	14.4035
0.49	14.4882
0.484	14.2471
0.478	13.795
0.472	13.279
0.466	12.7999
0.46	12.4398
0.454	12.1863
0.448	12.1929
0.442	12.2903
0.436	11.998
0.43	11.7351
0.424	11.4376
0.418	11.0101
0.412	10.6974
0.406	10.5467
0.4	10.5669
