Name: Glauberite Na_2Ca(SO_4)_2
Type: Mineral
Class: Sulfates
Particle Size: 45-125um
Sample No.: SO-8A
Owner: JPL
Wavelength Range: VNIR-SWIR
Origin: USA, Arizona, Yavapai County, Campe Verde
Measurement: Hemispherical reflectance
X Units: Wavelength (micrometers)
Y Units: Reflectance (percent)
wavelength	value
0.4	65.96
0.403	66.51
0.406	66.63
0.409	66.82
0.412	67.27
0.415	67.46
0.418	67.73
0.421	67.92
0.424	68.38
0.427	68.44
0.43	68.81
0.433	69.23
0.436	69.28
0.439	69.54
0.442	69.89
0.445	69.96
0.448	70.13
0.451	70.42
0.454	70.57
0.457	70.76
0.46	70.84
0.463	70.94
0.466	71
0.469	71.28
0.472	71.49
0.475	71.47
0.478	71.68
0.481	71.85
0.484	71.93
0.487	72.03
0.49	72.13
0.493	72.36
0.496	72.31
0.499	72.54
0.502	72.78
0.505	72.96
0.508	73.12
0.511	73.26
0.514	73.47
0.517	73.58
0.52	73.63
0.523	73.79
0.526	73.87
0.529	74.06
0.532	74.05
0.535	74.21
0.538	74.55
0.541	74.42
0.544	74.63
0.547	74.73
0.55	74.9
0.553	75
0.556	75.14
0.559	75.1
0.562	75.62
0.565	75.51
0.568	75.43
0.571	75.49
0.574	75.36
0.577	75.45
0.58	75.41
0.583	75.65
0.586	75.58
0.589	75.67
0.592	75.81
0.595	75.8
0.598	75.87
0.601	75.89
0.604	76
0.607	76.01
0.61	76.01
0.613	75.9
0.616	76.06
0.619	76.06
0.622	76.07
0.625	76.14
0.628	76.15
0.631	76.22
0.634	76.25
0.637	76.29
0.64	76.24
0.643	76.29
0.646	76.19
0.649	76.48
0.652	76.56
0.655	76.46
0.658	76.35
0.661	76.53
0.664	76.58
0.667	76.62
0.67	76.64
0.673	76.69
0.676	76.8
0.679	76.72
0.682	76.8
0.685	76.85
0.688	76.89
0.691	76.93
0.694	77.03
0.697	77.14
0.7	77
0.703	77.18
0.706	77.06
0.709	77.1
0.712	77.32
0.715	77.25
0.718	77.37
0.721	77.33
0.724	77.63
0.727	77.44
0.73	77.49
0.733	77.64
0.736	77.76
0.739	77.77
0.742	77.83
0.745	77.89
0.748	77.75
0.751	77.89
0.754	78.05
0.757	77.98
0.76	78.02
0.763	78.03
0.766	78.16
0.769	78.22
0.772	78.25
0.775	78.39
0.778	78.33
0.781	78.43
0.784	78.48
0.787	78.63
0.79	78.67
0.793	78.48
0.796	78.66
0.799	78.63
0.808	79.12
0.82	79.25
0.832	79.27
0.844	79.31
0.856	79.4
0.868	79.53
0.88	79.42
0.892	79.54
0.904	79.43
0.916	79.49
0.928	79.65
0.94	79.66
0.952	79.71
0.964	79.89
0.976	79.85
0.988	79.94
1	80
1.012	80.09
1.024	80.02
1.036	80.11
1.048	80.27
1.06	80.26
1.072	80.29
1.084	80.35
1.096	80.38
1.108	80.47
1.12	80.68
1.132	80.73
1.144	80.73
1.156	80.66
1.168	80.79
1.18	80.87
1.192	80.86
1.204	80.94
1.216	81.05
1.228	81.13
1.24	81.26
1.252	81.33
1.264	81.4
1.276	81.43
1.288	81.71
1.3	81.73
1.312	81.7
1.324	81.76
1.336	81.75
1.348	81.75
1.36	81.87
1.372	81.86
1.384	81.6
1.396	81.58
1.408	81.39
1.42	81.41
1.432	81.54
1.444	81.49
1.456	81.69
1.468	81.79
1.48	81.95
1.492	82.11
1.504	82.19
1.516	82.36
1.528	82.46
1.54	82.48
1.552	82.57
1.564	82.65
1.576	82.71
1.588	82.82
1.6	82.86
1.612	82.91
1.624	82.97
1.636	83.14
1.648	83.1
1.66	83.23
1.672	83.24
1.684	83.3
1.696	83.26
1.708	83.3
1.72	83.23
1.732	83.3
1.744	83.04
1.756	83.09
1.768	83.16
1.78	83.1
1.792	83.26
1.804	83.27
1.816	83.35
1.828	83.21
1.84	83.3
1.852	83.19
1.864	83.01
1.876	82.59
1.888	81.7
1.9	80.66
1.912	79.85
1.924	79.36
1.936	79.06
1.948	79.36
1.96	79.8
1.972	80.3
1.984	80.79
1.996	81.57
2.008	82.07
2.02	82.56
2.032	82.75
2.044	82.85
2.056	83.06
2.068	83.12
2.08	83.2
2.092	83.34
2.104	83.49
2.116	83.55
2.128	83.61
2.14	83.46
2.152	83.34
2.164	83.08
2.176	82.95
2.188	82.75
2.2	82.48
2.212	82.31
2.224	82.4
2.236	82.47
2.248	82.54
2.26	82.52
2.272	82.51
2.284	82.39
2.296	82.26
2.308	82.11
2.32	82.23
2.332	82.23
2.344	82.1
2.356	82.03
2.368	81.79
2.38	81.44
2.392	81.11
2.404	80.83
2.416	80.71
2.428	80.42
2.44	80.23
2.452	79.96
2.464	79.8
2.476	79.68
2.488	79.9
2.5	80.28
