Name: Sandy Loam/alluvium
Type: Soils
Class: Entisol
Particle Size: see additional information
Sample No.: fgg008
Owner: University of NSW
Origin: Fowlers Gap, western New South Wales, Australia
Description: Parent material consists of aeolian silts/clays and sandstone debris. Red-orange loam.
Measurement: Directional hemispherical reflectance
X Units: Wavelength (micrometers)
Y Units: Reflectance (percent)
wavelength	value
14.013	1.4627
13.79	1.3359
13.573	1.6173
13.363	1.5503
13.16	1.6546
12.962	1.8137
12.771	2.0473
12.585	1.7508
12.404	1.5924
12.228	1.3516
12.058	1.6285
11.892	1.9887
11.73	2.1005
11.573	2.2758
11.42	2.3222
11.271	2.4455
11.126	2.7606
10.985	2.9017
10.847	2.7497
10.713	2.6118
10.581	2.4534
10.453	2.8872
10.328	3.6623
10.206	4.0966
10.087	4.9725
9.971	6.236
9.857	6.5735
9.746	7.6752
9.637	9.2042
9.531	9.8832
9.427	10.5416
9.325	10.5397
9.226	9.0622
9.128	7.663
9.033	6.827
8.939	6.9677
8.848	7.4722
8.758	6.8584
8.67	6.1605
8.584	5.846
8.5	6.1691
8.417	6.5257
8.336	6.9831
8.256	7.9644
8.178	8.1166
8.101	6.0857
8.026	4.3557
7.952	3.1093
7.88	2.2476
7.809	1.8561
7.739	1.6956
7.67	1.5935
7.602	1.4862
7.536	1.4208
7.471	1.3718
7.407	1.3528
7.344	1.4094
7.282	1.533
7.221	1.5874
7.161	1.7811
7.103	1.727
7.045	1.9349
6.988	2.021
6.932	2.0125
6.876	2.0968
6.822	2.1369
6.769	2.0501
6.716	2.1325
6.664	2.1378
6.613	2.2966
6.563	2.1983
6.514	2.3693
6.465	2.5535
6.417	3.0288
6.37	2.4096
6.323	2.066
6.277	1.7324
6.232	1.5293
6.187	1.374
6.143	1.225
6.1	1.1305
6.057	1.3636
6.015	1.3555
5.973	1.3794
5.932	1.546
5.892	2.0701
5.852	2.4476
5.813	2.9751
5.774	3.6538
5.735	4.1112
5.698	4.3599
5.66	4.0437
5.623	3.6142
5.587	3.4115
5.551	3.5275
5.516	3.658
5.481	4.0373
5.446	4.2265
5.412	3.7718
5.378	3.2314
5.345	3.0768
5.312	3.2376
5.28	3.5014
5.248	3.9779
5.216	4.8299
5.185	5.1252
5.154	4.915
5.123	5.1811
5.093	5.134
5.063	4.9007
5.034	5.1317
5.005	5.1501
4.976	5.6054
4.947	6.4906
4.919	7.108
4.891	8.8984
4.864	10.4891
4.837	11.2087
4.81	11.8484
4.783	12.1956
4.757	12.4612
4.731	12.6287
4.705	12.5694
4.68	12.3151
4.654	12.8872
4.629	13.5443
4.605	13.9669
4.58	14.1951
4.556	14.3388
4.532	14.0547
4.509	13.6308
4.485	13.1854
4.462	13.2314
4.439	13.7514
4.416	14.1897
4.394	14.865
4.372	15.6217
4.35	15.7501
4.328	15.439
4.306	14.2639
4.285	13.6458
4.264	14.0284
4.243	13.0865
4.222	14.0117
4.202	17.5547
4.181	19.0296
4.161	19.3933
4.141	19.9017
4.122	20.242
4.102	20.6848
4.083	21.2212
4.063	21.6548
4.044	21.9373
4.026	22.1449
4.007	22.4713
3.988	22.6131
3.97	22.9094
3.952	23.1619
3.934	23.18
3.916	23.2551
3.898	23.0877
3.881	22.9742
3.864	22.7716
3.846	22.5611
3.829	22.3328
3.812	21.9645
3.796	21.8216
3.779	21.2949
3.763	20.861
3.746	20.3523
3.73	19.7816
3.714	19.3302
3.698	18.8444
3.682	18.544
3.667	17.9954
3.651	17.6817
3.636	17.0031
3.621	16.4059
3.606	15.9237
3.591	15.2447
3.576	14.7702
3.561	14.2011
3.546	13.6233
3.532	12.9819
3.518	12.3876
3.503	11.6788
3.489	11.4498
3.475	10.8277
3.461	10.2763
3.447	9.7243
3.434	9.2268
3.42	8.6055
3.407	8.2442
3.393	7.8782
3.38	7.4979
3.367	6.9504
3.354	6.6459
3.341	6.3655
3.328	6.0088
3.315	5.6179
3.302	5.3161
3.29	5.0443
3.277	4.8712
3.265	4.5079
3.253	4.2731
3.24	4.0668
3.228	3.7613
3.216	3.6277
3.204	3.3876
3.193	3.2458
3.181	3.104
3.169	2.9206
3.158	2.7324
3.146	2.6861
3.135	2.6354
3.123	2.3503
3.112	2.3688
3.101	2.314
3.09	2.071
3.079	2.1521
3.068	2.2041
3.057	2.1542
3.046	2.2762
3.036	1.9976
3.025	1.8896
3.014	1.9819
3.004	1.9436
2.994	2.0861
2.983	1.8488
2.973	1.8686
2.963	1.7303
2.953	1.6966
2.943	1.7416
2.933	1.8863
2.923	1.7438
2.913	1.768
2.903	1.7508
2.893	1.7054
2.884	1.8174
2.874	1.8227
2.865	1.7939
2.855	1.9045
2.846	2.1537
2.836	1.9393
2.827	2.0101
2.818	1.9398
2.809	1.8034
2.8	1.7949
2.791	1.7996
2.782	1.8217
2.773	1.6514
2.764	1.3077
2.755	1.3877
2.746	1.3855
2.737	1.5869
2.729	1.6947
2.72	2.2651
2.712	2.3567
2.703	1.7787
2.695	4.1112
2.686	8.3351
2.678	12.4036
2.67	16.2088
2.662	17.147
2.654	18.6587
2.645	19.7728
2.637	20.5951
2.629	22.0709
2.621	22.9016
2.613	22.9195
2.605	24.5501
2.598	23.8469
2.59	24.1674
2.582	24.449
2.574	24.9584
2.567	24.7691
2.559	25.0895
2.552	25.6138
2.544	25.528
2.537	25.7093
2.529	25.716
2.522	25.8619
2.515	26.3048
2.507	26.5316
2.5	26.9575
2.493	27.3359
2.486	27.5441
2.478	28.1149
2.471	28.6009
2.464	29.0864
2.457	29.348
2.45	29.8477
2.443	30.176
2.437	30.883
2.43	31.7985
2.423	32.2698
2.416	33.1278
2.409	33.7246
2.403	33.9293
2.396	34.209
2.389	34.3055
2.383	34.4936
2.376	34.9159
2.37	35.7358
2.363	36.1392
2.357	36.418
2.35	36.879
2.344	37.9325
2.338	38.4013
2.331	39.2144
2.325	39.7999
2.319	40.2053
2.313	41.0008
2.306	41.481
2.3	42.0004
2.294	42.4992
2.288	42.5056
2.282	43.0536
2.276	43.1285
2.27	43.5443
2.264	43.4299
2.258	43.0534
2.252	42.5189
2.247	42.1627
2.241	41.9169
2.235	41.884
2.229	41.4607
2.223	40.8775
2.218	39.7867
2.212	37.1917
2.206	36.5968
2.201	38.9688
2.195	40.229
2.189	41.3624
2.184	42.1961
2.179	42.9608
2.173	43.451
2.168	43.7958
2.162	44.3486
2.157	45.0411
2.151	46.0588
2.146	47.0727
2.141	47.7676
2.135	48.2336
2.13	48.2334
2.125	48.2748
2.12	48.3475
2.115	48.2458
2.109	48.1096
2.104	48.3002
2.099	48.4077
2.094	48.1538
2.089	48.0528
2.084	48.09
2.079	48.1535
2.074	47.9749
2.069	47.5218
2.064	47.7238
2.059	47.3267
2.054	47.3479
2.049	47.0623
2.045	46.8343
2.04	46.371
2.035	46.1631
2.03	45.8062
2.025	45.4726
2.021	44.9744
2.016	44.4253
2.011	43.9886
2.007	43.6462
2.002	43.0785
