Name: Arsenopyrite FeAsS
Type: Mineral
Class: Sulfides
Particle Size: 0-45um
Sample No.: S-5A
Owner: JPL
Wavelength Range: v
Origin: USA, Nevada, Lander County, Austin
Measurement: Hemispherical reflectance
X Units: Wavelength (micrometers)
Y Units: Reflectance (percent)
wavelength	value
0.4	11.44
0.403	11.38
0.406	11.35
0.409	11.52
0.412	11.39
0.415	11.45
0.418	11.41
0.421	11.51
0.424	11.45
0.427	11.54
0.43	11.51
0.433	11.51
0.436	11.6
0.439	11.65
0.442	11.61
0.445	11.6
0.448	11.63
0.451	11.69
0.454	11.66
0.457	11.68
0.46	11.69
0.463	11.67
0.466	11.78
0.469	11.78
0.472	11.7
0.475	11.75
0.478	11.84
0.481	11.83
0.484	11.84
0.487	11.86
0.49	11.83
0.493	11.99
0.496	12
0.499	11.9
0.502	11.87
0.505	11.97
0.508	11.99
0.511	12.07
0.514	12.03
0.517	12.03
0.52	12.09
0.523	12.15
0.526	12.11
0.529	12.09
0.532	12.06
0.535	12.15
0.538	12.12
0.541	12.15
0.544	12.19
0.547	12.17
0.55	12.21
0.553	12.17
0.556	12.22
0.559	12.12
0.562	12.37
0.565	12.24
0.568	12.21
0.571	12.33
0.574	12.26
0.577	12.22
0.58	12.18
0.583	12.21
0.586	12.36
0.589	12.34
0.592	12.21
0.595	12.23
0.598	12.34
0.601	12.26
0.604	12.26
0.607	12.31
0.61	12.19
0.613	12.35
0.616	12.43
0.619	12.25
0.622	12.31
0.625	12.31
0.628	12.38
0.631	12.45
0.634	12.31
0.637	12.31
0.64	12.39
0.643	12.39
0.646	12.4
0.649	12.33
0.652	12.26
0.655	12.47
0.658	12.38
0.661	12.33
0.664	12.35
0.667	12.42
0.67	12.46
0.673	12.39
0.676	12.41
0.679	12.38
0.682	12.43
0.685	12.44
0.688	12.43
0.691	12.41
0.694	12.54
0.697	12.52
0.7	12.6
0.703	12.49
0.706	12.46
0.709	12.45
0.712	12.48
0.715	12.5
0.718	12.61
0.721	12.52
0.724	12.51
0.727	12.48
0.73	12.51
0.733	12.53
0.736	12.44
0.739	12.47
0.742	12.5
0.745	12.48
0.748	12.41
0.751	12.45
0.754	12.48
0.757	12.47
0.76	12.43
0.763	12.42
0.766	12.51
0.769	12.52
0.772	12.48
0.775	12.4
0.778	12.48
0.781	12.46
0.784	12.54
0.787	12.46
0.79	12.44
0.793	12.4
0.796	12.35
0.799	12.33
0.808	12.69
0.82	12.61
0.832	12.6
0.844	12.56
0.856	12.58
0.868	12.5
0.88	12.44
0.892	12.5
0.904	12.44
0.916	12.44
0.928	12.41
0.94	12.4
0.952	12.42
0.964	12.4
0.976	12.39
0.988	12.37
1	12.32
1.012	12.3
1.024	12.25
1.036	12.36
1.048	12.33
1.06	12.31
1.072	12.23
1.084	12.3
1.096	12.23
1.108	12.31
1.12	12.26
1.132	12.27
1.144	12.17
1.156	12.2
1.168	12.16
1.18	12.16
1.192	12.15
1.204	12.08
1.216	12.13
1.228	12.2
1.24	12.18
1.252	12.22
1.264	12.24
1.276	12.25
1.288	12.28
1.3	12.25
1.312	12.28
1.324	12.29
1.336	12.25
1.348	12.27
1.36	12.28
1.372	12.28
1.384	12.26
1.396	12.29
1.408	12.34
1.42	12.25
1.432	12.34
1.444	12.41
1.456	12.42
1.468	12.38
1.48	12.36
1.492	12.3
1.504	12.3
1.516	12.42
1.528	12.33
1.54	12.39
1.552	12.37
1.564	12.37
1.576	12.42
1.588	12.42
1.6	12.47
1.612	12.42
1.624	12.39
1.636	12.45
1.648	12.41
1.66	12.48
1.672	12.44
1.684	12.45
1.696	12.49
1.708	12.47
1.72	12.48
1.732	12.39
1.744	12.42
1.756	12.43
1.768	12.42
1.78	12.36
1.792	12.37
1.804	12.41
1.816	12.39
1.828	12.4
1.84	12.4
1.852	12.36
1.864	12.34
1.876	12.3
1.888	12.33
1.9	12.41
1.912	12.35
1.924	12.39
1.936	12.32
1.948	12.31
1.96	12.3
1.972	12.31
1.984	12.29
1.996	12.3
2.008	12.37
2.02	12.41
2.032	12.41
2.044	12.39
2.056	12.43
2.068	12.42
2.08	12.41
2.092	12.42
2.104	12.35
2.116	12.36
2.128	12.37
2.14	12.34
2.152	12.35
2.164	12.32
2.176	12.35
2.188	12.28
2.2	12.37
2.212	12.34
2.224	12.3
2.236	12.34
2.248	12.34
2.26	12.37
2.272	12.29
2.284	12.37
2.296	12.37
2.308	12.31
2.32	12.37
2.332	12.33
2.344	12.42
2.356	12.41
2.368	12.41
2.38	12.36
2.392	12.38
2.404	12.43
2.416	12.38
2.428	12.44
2.44	12.43
2.452	12.37
2.464	12.35
2.476	12.31
2.488	12.39
2.5	12.43
