Name: Triphylite Li(Mn,Fe)PO_4
Type: Mineral
Class: Phosphates
Particle Size: 0-45um
Sample No.: P-4A
Owner: JPL
Wavelength Range: VNIR-SWIR
Origin: USA, New Hampshire, North Graton, Palermo Mine
Measurement: Hemispherical reflectance
X Units: Wavelength (micrometers)
Y Units: Reflectance (percent)
wavelength	value
0.4	48.38
0.403	49.24
0.406	48.61
0.409	50.34
0.412	51.73
0.415	52.82
0.418	53.92
0.421	54.15
0.424	55.42
0.427	55.36
0.43	56.28
0.433	56.63
0.436	56.51
0.439	57.44
0.442	56.8
0.445	57.49
0.448	57.21
0.451	57.61
0.454	57.68
0.457	57.44
0.46	58.32
0.463	58.96
0.466	58.33
0.469	58.27
0.472	58.33
0.475	61.57
0.478	62.56
0.481	63.02
0.484	63.43
0.487	63.03
0.49	63.43
0.493	62.58
0.496	63.09
0.499	62.93
0.502	64.61
0.505	65.42
0.508	65.93
0.511	66.46
0.514	66.28
0.517	67.55
0.52	67.04
0.523	67.55
0.526	67.61
0.529	68.07
0.532	68.19
0.535	68.02
0.538	68.54
0.541	68.02
0.544	68.6
0.547	67.96
0.55	68.13
0.553	68.19
0.556	67.61
0.559	68.36
0.562	68.13
0.565	68.6
0.568	67.9
0.571	68.65
0.574	68.07
0.577	68.31
0.58	68.42
0.583	68.25
0.586	68.36
0.589	67.84
0.592	68.19
0.595	67.14
0.598	68.13
0.601	67.43
0.604	67.78
0.607	68.02
0.61	68.13
0.613	69.11
0.616	68.76
0.619	70.21
0.622	70.04
0.625	71.6
0.628	71.72
0.631	72.52
0.634	72.58
0.637	72.87
0.64	73.57
0.643	73.1
0.646	73.79
0.649	72.99
0.652	73.85
0.655	73.39
0.658	73.57
0.661	73.62
0.664	73.22
0.667	73.68
0.67	73.04
0.673	73.33
0.676	72.87
0.679	73.33
0.682	73.04
0.685	72.93
0.688	73.16
0.691	72.58
0.694	73.16
0.697	72.64
0.7	72.81
0.703	72.87
0.706	72.23
0.709	73.1
0.712	72.46
0.715	73.39
0.718	72.52
0.721	73.39
0.724	72.81
0.727	73.45
0.73	73.22
0.733	73.45
0.736	73.79
0.739	73.68
0.742	73.96
0.745	73.57
0.748	74.49
0.751	74.2
0.754	74.89
0.757	74.2
0.76	75.01
0.763	74.78
0.766	75.18
0.769	74.95
0.772	74.72
0.775	75.52
0.778	74.84
0.781	75.41
0.784	74.66
0.787	75.3
0.79	74.72
0.793	75.18
0.796	74.72
0.799	74.37
0.808	74.2
0.82	72.29
0.832	70.27
0.844	67.84
0.856	65.24
0.868	62.07
0.88	59.11
0.892	55.93
0.904	52.64
0.916	49.58
0.928	46.75
0.94	43.8
0.952	41.26
0.964	38.94
0.976	36.93
0.988	34.96
1	33.46
1.012	32.13
1.024	31.32
1.036	30.45
1.048	29.87
1.06	29.52
1.072	29.58
1.084	29.7
1.096	30.16
1.108	30.68
1.12	31.67
1.132	32.64
1.144	33.86
1.156	35.12
1.168	36.33
1.18	37.42
1.192	38.4
1.204	39.02
1.216	39.48
1.228	40.12
1.24	40.35
1.252	40.35
1.264	40.28
1.276	40.04
1.288	39.92
1.3	39.68
1.312	39.61
1.324	39.48
1.336	39.65
1.348	39.58
1.36	39.64
1.372	39.58
1.384	39.64
1.396	39.93
1.408	40.27
1.42	40.63
1.432	41.04
1.444	41.46
1.456	41.86
1.468	42.5
1.48	43.08
1.492	43.83
1.504	44.58
1.516	45.38
1.528	45.96
1.54	46.82
1.552	47.8
1.564	48.62
1.576	49.65
1.588	50.81
1.6	51.61
1.612	52.64
1.624	53.72
1.636	55.1
1.648	56.17
1.66	57.31
1.672	58.34
1.684	59.53
1.696	60.78
1.708	62.04
1.72	63.25
1.732	64.23
1.744	65.56
1.756	66.65
1.768	67.75
1.78	68.78
1.792	70.04
1.804	71.06
1.816	71.97
1.828	72.82
1.84	74.01
1.852	74.87
1.864	75.7
1.876	76.54
1.888	76.87
1.9	77.54
1.912	78.44
1.924	78.87
1.936	79.42
1.948	80.03
1.96	80.55
1.972	81.3
1.984	81.63
1.996	82.2
2.008	82.62
2.02	83.24
2.032	83.67
2.044	83.94
2.056	84.29
2.068	84.75
2.08	84.88
2.092	85.22
2.104	85.33
2.116	85.96
2.128	86.01
2.14	86.19
2.152	86.09
2.164	86.23
2.176	86.32
2.188	86.35
2.2	86
2.212	86.07
2.224	86.37
2.236	86.37
2.248	86.22
2.26	86.31
2.272	86.29
2.284	86.29
2.296	86.59
2.308	86.73
2.32	87.18
2.332	86.97
2.344	86.73
2.356	86.62
2.368	86.57
2.38	86.61
2.392	86.24
2.404	86.23
2.416	85.94
2.428	86.13
2.44	86.06
2.452	85.98
2.464	85.56
2.476	85.32
2.488	85.13
2.5	84.72
