Name: Serpentine (Mg,Fe^2+,Ni)Si_2O_5(OH)_4
Type: Mineral
Class: Silicates
Subclass: Phyllosilicates
Particle Size: 125-500um
Sample No.: PS-20A
Owner: JPL
Origin: USA, New York.
Measurement: Hemispherical reflectance
X Units: Wavelength (micrometers)
Y Units: Reflectance (percent)
wavelength	value
2.5	7.26069
2.494	7.6339
2.488	8.28716
2.482	8.93005
2.476	9.36205
2.47	10.3829
2.464	11.4749
2.458	12.2482
2.452	12.2743
2.446	11.7995
2.44	10.8542
2.434	10.3833
2.428	10.3331
2.422	10.8545
2.416	11.2587
2.41	11.4575
2.404	11.5289
2.398	11.7053
2.392	12.2089
2.386	12.8005
2.38	13.4916
2.374	14.1314
2.368	14.9111
2.362	16.0029
2.356	16.326
2.35	14.8036
2.344	11.8442
2.338	8.99845
2.332	7.45185
2.326	7.22379
2.32	7.91158
2.314	9.10434
2.308	10.995
2.302	12.8687
2.296	14.5393
2.29	15.7832
2.284	16.3759
2.278	16.372
2.272	16.3101
2.266	17.8814
2.26	20.8218
2.254	23.199
2.248	23.859
2.242	24.7997
2.236	27.4068
2.23	31.6933
2.224	36.1201
2.218	39.2541
2.212	41.1256
2.206	42.0432
2.2	42.7403
2.194	43.1934
2.188	43.5151
2.182	43.5668
2.176	43.4253
2.17	43.1238
2.164	42.864
2.158	41.9131
2.152	40.2673
2.146	37.8725
2.14	35.2694
2.134	32.9189
2.128	32.4994
2.122	33.5379
2.116	33.2774
2.11	33.0975
2.104	34.0858
2.098	34.3661
2.092	35.309
2.086	37.3038
2.08	39.6067
2.074	41.7384
2.068	42.6243
2.062	42.2039
2.056	40.7588
2.05	38.7071
2.044	36.8022
2.038	35.6227
2.032	35.0208
2.026	34.7052
2.02	34.6578
2.014	34.179
2.008	33.2272
2.002	31.9161
1.996	30.8265
1.99	30.1565
1.984	29.7266
1.978	29.6321
1.972	29.9038
1.966	30.353
1.96	30.7449
1.954	31.2482
1.948	31.6651
1.942	31.8013
1.936	31.8681
1.93	31.6894
1.924	31.5387
1.918	31.6981
1.912	32.6637
1.906	34.9157
1.9	38.3488
1.894	42.246
1.888	45.8254
1.882	48.4261
1.876	50.6393
1.87	52.6949
1.864	53.832
1.858	54.2131
1.852	54.9144
1.846	55.8944
1.84	56.4248
1.834	56.7195
1.828	56.755
1.822	56.375
1.816	55.9501
1.81	56.4262
1.804	57.3581
1.798	58.0798
1.792	58.461
1.786	58.6717
1.78	58.774
1.774	59.0198
1.768	59.2827
1.762	59.794
1.756	60.343
1.75	60.7632
1.744	61.1864
1.738	61.6647
1.732	61.926
1.726	62.2413
1.72	62.6896
1.714	62.9963
1.708	63.283
1.702	63.4883
1.696	63.7732
1.69	63.9241
1.684	64.0481
1.678	64.1907
1.672	64.2224
1.666	64.3708
1.66	64.4308
1.654	64.4429
1.648	64.4994
1.642	64.4974
1.636	64.391
1.63	64.4303
1.624	64.3314
1.618	64.2032
1.612	64.0979
1.606	64.0361
1.6	63.948
1.594	63.708
1.588	63.5454
1.582	63.4442
1.576	63.2217
1.57	62.8389
1.564	62.6529
1.558	62.437
1.552	62.113
1.546	61.9328
1.54	61.5223
1.534	61.0938
1.528	60.5939
1.522	60.2664
1.516	60.0052
1.51	59.3464
1.504	59.1813
1.498	58.8561
1.492	58.3535
1.486	57.5944
1.48	57.1139
1.474	56.624
1.468	56.0534
1.462	55.6775
1.456	55.2215
1.45	54.8313
1.444	54.2141
1.438	53.4489
1.432	52.5234
1.426	51.2187
1.42	50.0475
1.414	47.8611
1.408	40.3579
1.402	32.1732
1.396	16.5296
1.39	16.6266
1.384	17.3826
1.378	42.6157
1.372	52.4003
1.366	50.7192
1.36	44.6417
1.354	48.3808
1.348	58.4983
1.342	59.95
1.336	60.4163
1.33	60.7129
1.324	60.6714
1.318	60.498
1.312	59.87
1.306	59.197
1.3	59.4497
1.294	58.1116
1.288	53.9395
1.282	54.8774
1.276	55.7668
1.27	57.677
1.264	57.5646
1.258	58.2799
1.252	59.2931
1.246	59.4818
1.24	59.3525
1.234	59.1143
1.228	58.9751
1.222	58.7415
1.216	58.5325
1.21	58.3663
1.204	58.1471
1.198	57.9137
1.192	57.6941
1.186	57.4982
1.18	57.255
1.174	57.0715
1.168	56.9586
1.162	56.8375
1.156	56.8295
1.15	56.7746
1.144	56.7802
1.138	56.8091
1.132	56.7664
1.126	56.6717
1.12	56.5645
1.114	56.5343
1.108	56.4374
1.102	56.4067
1.096	56.3447
1.09	56.4161
1.084	56.3443
1.078	56.3299
1.072	56.306
1.066	56.2811
1.06	56.3098
1.054	56.2504
1.048	56.2863
1.042	56.2436
1.036	56.1212
1.03	56.0466
1.024	56.0544
1.018	55.9781
1.012	55.742
1.006	55.7704
1	55.5776
0.994	55.5458
0.988	55.3199
0.982	55.0416
0.976	54.9068
0.97	54.6242
0.964	54.0661
0.958	52.8856
0.952	50.2758
0.946	50.5002
0.94	51.891
0.934	53.7424
0.928	53.7748
0.922	53.6188
0.916	53.6186
0.91	53.5797
0.904	53.5078
0.898	53.4836
0.892	53.5761
0.886	53.7391
0.88	53.8298
0.874	53.9853
0.868	54.0757
0.862	54.152
0.856	54.473
0.85	54.649
0.844	54.7396
0.838	54.8393
0.832	54.9949
0.826	54.9845
0.82	54.9975
0.814	54.957
0.808	54.886
0.802	54.7427
0.796	54.5642
0.79	54.3673
0.784	54.216
0.778	53.9894
0.772	53.834
0.766	53.705
0.76	53.5855
0.754	53.5203
0.748	53.4853
0.742	53.4607
0.736	53.4529
0.73	53.4718
0.724	53.5796
0.718	53.8868
0.712	54.0321
0.706	54.2048
0.7	54.383
0.694	54.5418
0.688	54.7084
0.682	54.8938
0.676	55.0444
0.67	55.2321
0.664	55.4209
0.658	55.626
0.652	55.8542
0.646	56.1144
0.64	56.3721
0.634	56.6334
0.628	56.9049
0.622	57.1291
0.616	57.354
0.61	57.5537
0.604	57.704
0.598	57.8539
0.592	57.9301
0.586	57.9248
0.58	57.8228
0.574	57.6392
0.568	57.425
0.562	57.1226
0.556	56.7193
0.55	56.2483
0.544	55.6503
0.538	55.0208
0.532	54.3109
0.526	53.5504
0.52	52.7454
0.514	51.8523
0.508	50.8352
0.502	49.7279
0.496	48.5398
0.49	47.5655
0.484	46.5398
0.478	44.8967
0.472	42.1482
0.466	38.6485
0.46	36.1687
0.454	35.331
0.448	34.7221
0.442	33.9419
0.436	33.5364
0.43	33.8963
0.424	34.4884
0.418	34.8659
0.412	35.2121
0.406	35.8821
0.4	36.0807
