Name: Natrojarosite NaFe_3^3+(SO_4)_2(OH)_6
Type: Mineral
Class: Sulfates
Particle Size: 125-500um
Sample No.: SO-7C
Owner: JPL
Wavelength Range: VNIR-SWIR
Origin: USA, Utah, Tooele County, Gold Hill
Measurement: Hemispherical reflectance
X Units: Wavelength (micrometers)
Y Units: Reflectance (percent)
wavelength	value
0.4	4.51
0.403	5.21
0.406	5.57
0.409	6.17
0.412	6.46
0.415	6.7
0.418	6.71
0.421	6.56
0.424	6.59
0.427	6.15
0.43	5.91
0.433	5.78
0.436	5.95
0.439	6.44
0.442	6.99
0.445	7.72
0.448	8.34
0.451	8.94
0.454	9.5
0.457	9.95
0.46	10.21
0.463	10.72
0.466	11.12
0.469	11.28
0.472	11.69
0.475	11.93
0.478	12.32
0.481	12.55
0.484	12.94
0.487	13.29
0.49	13.61
0.493	14.03
0.496	14.44
0.499	14.92
0.502	15.33
0.505	15.89
0.508	16.35
0.511	16.91
0.514	17.55
0.517	18.26
0.52	19.05
0.523	19.68
0.526	20.6
0.529	21.38
0.532	22.38
0.535	23.31
0.538	24.33
0.541	25.36
0.544	26.42
0.547	27.42
0.55	28.46
0.553	29.51
0.556	30.53
0.559	31.3
0.562	32.63
0.565	33.48
0.568	34.24
0.571	34.96
0.574	35.49
0.577	35.98
0.58	36.56
0.583	36.95
0.586	37.41
0.589	37.67
0.592	38.01
0.595	38.3
0.598	38.5
0.601	38.87
0.604	38.88
0.607	39.06
0.61	39.28
0.613	39.42
0.616	39.61
0.619	39.64
0.622	39.78
0.625	39.96
0.628	40.14
0.631	40.37
0.634	40.41
0.637	40.68
0.64	40.7
0.643	40.94
0.646	41.16
0.649	41.32
0.652	41.54
0.655	41.92
0.658	42.15
0.661	42.35
0.664	42.61
0.667	42.89
0.67	43.18
0.673	43.52
0.676	43.82
0.679	44.18
0.682	44.45
0.685	44.82
0.688	45.14
0.691	45.43
0.694	45.8
0.697	46.05
0.7	46.24
0.703	46.66
0.706	46.92
0.709	47.29
0.712	47.52
0.715	47.78
0.718	47.93
0.721	48.13
0.724	48.21
0.727	48.28
0.73	48.47
0.733	48.44
0.736	48.42
0.739	48.39
0.742	48.24
0.745	48.21
0.748	47.98
0.751	47.84
0.754	47.55
0.757	47.18
0.76	47.1
0.763	46.67
0.766	46.43
0.769	45.95
0.772	45.66
0.775	45.15
0.778	44.83
0.781	44.34
0.784	43.91
0.787	43.54
0.79	43.04
0.793	42.74
0.796	42.17
0.799	41.94
0.808	40.9
0.82	39.37
0.832	38.04
0.844	36.84
0.856	35.9
0.868	35.19
0.88	34.67
0.892	34.25
0.904	33.9
0.916	33.9
0.928	33.84
0.94	34
0.952	34.32
0.964	34.86
0.976	35.35
0.988	36.03
1	36.78
1.012	37.81
1.024	38.87
1.036	39.94
1.048	41.01
1.06	42.1
1.072	43.22
1.084	44.34
1.096	45.41
1.108	46.4
1.12	47.41
1.132	48.39
1.144	49.31
1.156	50.26
1.168	51.24
1.18	52.19
1.192	53.16
1.204	54.14
1.216	55.11
1.228	56.1
1.24	57.22
1.252	58.17
1.264	59.17
1.276	60.15
1.288	61.29
1.3	62.27
1.312	63.27
1.324	64.21
1.336	65.27
1.348	66.29
1.36	67.18
1.372	67.95
1.384	68.82
1.396	69.59
1.408	70.17
1.42	70.39
1.432	70.35
1.444	69.8
1.456	67.11
1.468	62.6
1.48	63.26
1.492	67.73
1.504	68.41
1.516	68.16
1.528	67.9
1.54	68.03
1.552	68.45
1.564	69.28
1.576	70.15
1.588	70.83
1.6	71.48
1.612	71.82
1.624	72.22
1.636	72.51
1.648	72.74
1.66	72.97
1.672	73.16
1.684	73.45
1.696	73.6
1.708	73.61
1.72	73.57
1.732	73.36
1.744	73.02
1.756	72.44
1.768	72.05
1.78	71.72
1.792	71.22
1.804	70.25
1.816	68.66
1.828	65.16
1.84	60.75
1.852	60.73
1.864	63.75
1.876	67.63
1.888	68.81
1.9	68.49
1.912	67.63
1.924	66.63
1.936	65.95
1.948	65.54
1.96	65.3
1.972	65.05
1.984	64.65
1.996	64.31
2.008	63.96
2.02	63.81
2.032	63.17
2.044	62.46
2.056	61.83
2.068	61.31
2.08	60.87
2.092	60.39
2.104	60
2.116	59.49
2.128	58.85
2.14	58.15
2.152	57.32
2.164	56.6
2.176	55.65
2.188	54.34
2.2	52.76
2.212	51.02
2.224	49.56
2.236	48.14
2.248	45.5
2.26	43.01
2.272	43.45
2.284	46.28
2.296	49.54
2.308	52.63
2.32	54.92
2.332	55.98
2.344	55.75
2.356	54.63
2.368	52.51
2.38	49.73
2.392	46.66
2.404	44.52
2.416	43.44
2.428	42.81
2.44	41.9
2.452	40.67
2.464	39.91
2.476	39.45
2.488	38.68
2.5	37.48
