Name: Vermiculite (Mg,Fe^2+,Al)_3(Al,Si)_4O_10(OH)_2.4H_2O
Type: Mineral
Class: Silicates
Subclass: Phyllosilicates
Particle Size: 125-500um
Sample No.: PS-18B
Owner: JPL
Wavelength Range: VNIR-SWIR
Origin: USA, Montana, Lincoln County, Libby
Measurement: Hemispherical reflectance
X Units: Wavelength (micrometers)
Y Units: Reflectance (percent)
wavelength	value
0.4	7.47
0.403	7.86
0.406	7.76
0.409	8.03
0.412	7.98
0.415	8.21
0.418	8.21
0.421	8.44
0.424	8.67
0.427	8.84
0.43	9.29
0.433	9.18
0.436	9.69
0.439	9.8
0.442	10.21
0.445	10.26
0.448	10.49
0.451	10.71
0.454	10.83
0.457	11.12
0.46	11
0.463	11.01
0.466	11.23
0.469	11.13
0.472	11.07
0.475	11.41
0.478	11.36
0.481	11.69
0.484	11.64
0.487	11.86
0.49	12.15
0.493	12.22
0.496	12.72
0.499	12.9
0.502	13.3
0.505	13.47
0.508	13.87
0.511	14.21
0.514	14.32
0.517	14.72
0.52	14.9
0.523	15.3
0.526	15.41
0.529	15.7
0.532	15.98
0.535	15.92
0.538	16.26
0.541	16.21
0.544	16.49
0.547	16.49
0.55	16.78
0.553	17.01
0.556	16.9
0.559	17.13
0.562	17.36
0.565	17.18
0.568	17.58
0.571	17.4
0.574	17.52
0.577	17.46
0.58	17.58
0.583	17.81
0.586	17.69
0.589	17.98
0.592	17.86
0.595	17.92
0.598	18.21
0.601	18.15
0.604	18.49
0.607	18.32
0.61	18.67
0.613	18.61
0.616	18.61
0.619	18.84
0.622	18.67
0.625	18.95
0.628	18.78
0.631	19.01
0.634	19.01
0.637	19.01
0.64	19.29
0.643	19.06
0.646	19.35
0.649	19.17
0.652	19.17
0.655	19.52
0.658	19.29
0.661	19.4
0.664	19.35
0.667	19.52
0.67	19.4
0.673	19.46
0.676	19.63
0.679	19.4
0.682	19.58
0.685	19.4
0.688	19.46
0.691	19.35
0.694	19.35
0.697	19.58
0.7	19.52
0.703	19.58
0.706	19.35
0.709	19.58
0.712	19.46
0.715	19.46
0.718	19.75
0.721	19.63
0.724	19.81
0.727	19.63
0.73	19.86
0.733	19.86
0.736	19.92
0.739	19.98
0.742	19.81
0.745	20.15
0.748	20.04
0.751	20.21
0.754	20.27
0.757	20.38
0.76	20.55
0.763	20.55
0.766	20.77
0.769	20.67
0.772	20.94
0.775	20.94
0.778	21.12
0.781	21.23
0.784	21.17
0.787	21.52
0.79	21.46
0.793	21.75
0.796	21.86
0.799	22.83
0.808	22.95
0.82	23.12
0.832	23.12
0.844	23.23
0.856	23.17
0.868	23
0.88	22.95
0.892	22.83
0.904	22.83
0.916	22.66
0.928	22.66
0.94	22.83
0.952	22.83
0.964	22.89
0.976	23
0.988	23
1	23.23
1.012	23.35
1.024	23.4
1.036	23.4
1.048	23.46
1.06	23.4
1.072	23.46
1.084	23.58
1.096	23.63
1.108	23.75
1.12	23.86
1.132	24.03
1.144	24.2
1.156	24.2
1.168	24.48
1.18	24.71
1.192	25.04
1.204	25.32
1.216	25.66
1.228	26.06
1.24	26.46
1.252	26.8
1.264	27.19
1.276	27.76
1.288	28.15
1.3	28.48
1.312	28.93
1.324	29.33
1.336	29.72
1.348	30.17
1.36	30.39
1.372	29.88
1.384	29.65
1.396	28.68
1.408	28.91
1.42	28.58
1.432	29.1
1.444	29.62
1.456	30.31
1.468	30.99
1.48	31.9
1.492	32.53
1.504	33.27
1.516	34.07
1.528	34.75
1.54	35.27
1.552	35.89
1.564	36.41
1.576	36.74
1.588	37.2
1.6	37.6
1.612	38.1
1.624	38.55
1.636	38.89
1.648	39.38
1.66	39.83
1.672	40.22
1.684	40.43
1.696	40.88
1.708	41.1
1.72	41.39
1.732	41.68
1.744	41.91
1.756	41.91
1.768	42.02
1.78	42.13
1.792	42.36
1.804	42.75
1.816	42.93
1.828	43.12
1.84	43.18
1.852	42.87
1.864	41.95
1.876	39.56
1.888	35.25
1.9	29.76
1.912	25.57
1.924	24.48
1.936	25.21
1.948	26.22
1.96	27.28
1.972	28.21
1.984	29.5
1.996	30.88
2.008	32.28
2.02	33.58
2.032	34.63
2.044	35.81
2.056	36.63
2.068	37.43
2.08	38.1
2.092	38.72
2.104	39.46
2.116	40.08
2.128	40.54
2.14	40.97
2.152	41.36
2.164	41.59
2.176	41.75
2.188	41.93
2.2	41.81
2.212	41.64
2.224	41.45
2.236	41.03
2.248	40.12
2.26	38.4
2.272	35.81
2.284	32.69
2.296	29.78
2.308	28.06
2.32	27.74
2.332	27.95
2.344	28.28
2.356	28.35
2.368	27.61
2.38	26.66
2.392	26.02
2.404	25.52
2.416	25.24
2.428	25.01
2.44	24.51
2.452	24.06
2.464	23.56
2.476	23
2.488	22.56
2.5	21.99
