Name: Bornite Cu_5FeS_4
Type: Mineral
Class: Sulfides
Particle Size: 0-45um
Sample No.: S-9A
Owner: JPL
Origin: USA, Arizona, Pinal County, Superior, Magma Mine.
Measurement: Hemispherical reflectance
X Units: Wavelength (micrometers)
Y Units: Reflectance (percent)
wavelength	value
2.5	7.93856
2.494	7.81131
2.488	7.74476
2.482	7.87695
2.476	7.83268
2.47	7.72877
2.464	7.88051
2.458	7.96902
2.452	7.86439
2.446	7.86697
2.44	7.80004
2.434	7.83545
2.428	7.82256
2.422	7.81988
2.416	7.87417
2.41	7.84497
2.404	7.89944
2.398	7.91243
2.392	7.88448
2.386	7.84135
2.38	7.85541
2.374	7.93829
2.368	7.83899
2.362	7.93662
2.356	7.87147
2.35	7.90012
2.344	7.9018
2.338	7.8895
2.332	7.85123
2.326	7.88891
2.32	7.86714
2.314	7.87643
2.308	7.82733
2.302	7.82881
2.296	7.83533
2.29	7.85547
2.284	7.87361
2.278	7.88536
2.272	7.81363
2.266	7.84715
2.26	7.86976
2.254	7.86498
2.248	7.84388
2.242	7.78145
2.236	7.87867
2.23	7.85977
2.224	7.87723
2.218	7.88748
2.212	7.94317
2.206	7.85314
2.2	7.88191
2.194	7.9185
2.188	7.91479
2.182	8.00955
2.176	7.95598
2.17	7.99631
2.164	7.92324
2.158	8.03033
2.152	8.05083
2.146	8.02106
2.14	8.00065
2.134	8.05841
2.128	8.00196
2.122	7.94089
2.116	7.90985
2.11	7.90763
2.104	7.91341
2.098	7.87129
2.092	7.90121
2.086	7.89803
2.08	7.90571
2.074	7.86845
2.068	7.91912
2.062	7.91066
2.056	7.93378
2.05	7.95392
2.044	7.91635
2.038	7.92607
2.032	7.97544
2.026	7.94838
2.02	7.96143
2.014	7.91672
2.008	7.95953
2.002	7.96113
1.996	7.97228
1.99	7.9587
1.984	7.97539
1.978	7.92197
1.972	7.91791
1.966	7.94175
1.96	7.91359
1.954	7.93718
1.948	7.88427
1.942	7.91364
1.936	7.97861
1.93	7.86429
1.924	7.85855
1.918	7.89539
1.912	7.89368
1.906	7.96756
1.9	7.92678
1.894	7.90649
1.888	7.94993
1.882	7.96983
1.876	7.96118
1.87	7.88701
1.864	7.97103
1.858	7.9417
1.852	8.00227
1.846	7.89646
1.84	7.94161
1.834	7.90715
1.828	7.91396
1.822	7.95308
1.816	7.94983
1.81	7.93689
1.804	7.86098
1.798	7.92091
1.792	7.88035
1.786	7.95394
1.78	7.90064
1.774	7.95647
1.768	7.85429
1.762	7.87831
1.756	7.85801
1.75	7.89721
1.744	7.90983
1.738	7.88614
1.732	7.83653
1.726	7.8497
1.72	7.90924
1.714	7.83635
1.708	7.91573
1.702	7.84919
1.696	7.8706
1.69	7.89131
1.684	7.83397
1.678	7.86492
1.672	7.88619
1.666	7.83573
1.66	7.89454
1.654	7.88806
1.648	7.80568
1.642	7.89027
1.636	7.81596
1.63	7.82874
1.624	7.74481
1.618	7.87493
1.612	7.83058
1.606	7.84081
1.6	7.81526
1.594	7.79742
1.588	7.80375
1.582	7.79731
1.576	7.80883
1.57	7.74596
1.564	7.83144
1.558	7.87272
1.552	7.79383
1.546	7.82433
1.54	7.80854
1.534	7.81238
1.528	7.78675
1.522	7.81672
1.516	7.75342
1.51	7.79333
1.504	7.80602
1.498	7.79246
1.492	7.80235
1.486	7.70754
1.48	7.73211
1.474	7.7458
1.468	7.70759
1.462	7.71864
1.456	7.6977
1.45	7.73781
1.444	7.64792
1.438	7.6928
1.432	7.71622
1.426	7.71364
1.42	7.69566
1.414	7.69024
1.408	7.7106
1.402	7.73071
1.396	7.69299
1.39	7.7679
1.384	7.63715
1.378	7.72609
1.372	7.62101
1.366	7.68775
1.36	7.60123
1.354	7.69576
1.348	7.56241
1.342	7.55129
1.336	7.57997
1.33	7.62184
1.324	7.54175
1.318	7.56484
1.312	7.57019
1.306	7.54897
1.3	7.59141
1.294	7.48486
1.288	7.50635
1.282	7.51931
1.276	7.46303
1.27	7.45538
1.264	7.48035
1.258	7.43972
1.252	7.4428
1.246	7.39625
1.24	7.34295
1.234	7.4278
1.228	7.40141
1.222	7.38566
1.216	7.34195
1.21	7.34678
1.204	7.28448
1.198	7.37202
1.192	7.26693
1.186	7.36849
1.18	7.25352
1.174	7.31878
1.168	7.23781
1.162	7.20923
1.156	7.24246
1.15	7.20071
1.144	7.17693
1.138	7.16002
1.132	7.15306
1.126	7.13887
1.12	7.06809
1.114	7.08388
1.108	7.12711
1.102	7.07945
1.096	6.98999
1.09	6.94056
1.084	7.03434
1.078	7.04454
1.072	6.99231
1.066	6.9848
1.06	6.99864
1.054	6.91111
1.048	6.9055
1.042	6.89639
1.036	6.84899
1.03	6.85334
1.024	6.89066
1.018	6.88078
1.012	6.8488
1.006	6.8479
1	6.81224
0.994	6.71191
0.988	6.7163
0.982	6.75935
0.976	6.69534
0.97	6.69661
0.964	6.63965
0.958	6.64672
0.952	6.61992
0.946	6.60884
0.94	6.52739
0.934	6.45102
0.928	6.47278
0.922	6.46435
0.916	6.45939
0.91	6.44482
0.904	6.37823
0.898	6.32855
0.892	6.3542
0.886	6.31091
0.88	6.22513
0.874	6.18185
0.868	6.17288
0.862	6.10996
0.856	6.24158
0.85	6.21597
0.844	6.15883
0.838	6.11429
0.832	6.06442
0.826	6.01425
0.82	5.96492
0.814	5.90786
0.808	5.85681
0.802	5.8047
0.796	5.74571
0.79	5.68641
0.784	5.61807
0.778	5.55317
0.772	5.4885
0.766	5.43359
0.76	5.36806
0.754	5.30376
0.748	5.24873
0.742	5.17651
0.736	5.11728
0.73	5.05369
0.724	4.99269
0.718	4.93067
0.712	4.86255
0.706	4.80487
0.7	4.74188
0.694	4.68288
0.688	4.62043
0.682	4.56056
0.676	4.50243
0.67	4.44316
0.664	4.38758
0.658	4.3342
0.652	4.29024
0.646	4.23986
0.64	4.19333
0.634	4.14428
0.628	4.10364
0.622	4.06257
0.616	4.02501
0.61	3.99274
0.604	3.9582
0.598	3.92863
0.592	3.90641
0.586	3.88265
0.58	3.86383
0.574	3.84919
0.568	3.83665
0.562	3.83251
0.556	3.82983
0.55	3.83331
0.544	3.84298
0.538	3.85818
0.532	3.8777
0.526	3.90004
0.52	3.92602
0.514	3.96302
0.508	3.99588
0.502	4.03749
0.496	4.08467
0.49	4.1305
0.484	4.17714
0.478	4.22369
0.472	4.27862
0.466	4.33488
0.46	4.40587
0.454	4.49085
0.448	4.57939
0.442	4.68204
0.436	4.79029
0.43	4.90489
0.424	5.02844
0.418	5.15456
0.412	5.27996
0.406	5.41282
0.4	5.54474
