Name: Arsenopyrite FeAsS
Type: Mineral
Class: Sulfides
Particle Size: 125-500um
Sample No.: S-5A
Owner: JPL
Origin: USA, Nevada, Lander County, Austin.
Measurement: Hemispherical reflectance
X Units: Wavelength (micrometers)
Y Units: Reflectance (percent)
wavelength	value
2.5	7.55833
2.494	7.59849
2.488	7.50934
2.482	7.48154
2.476	7.4048
2.47	7.55154
2.464	7.49291
2.458	7.51982
2.452	7.48355
2.446	7.4662
2.44	7.55864
2.434	7.54391
2.428	7.58915
2.422	7.54358
2.416	7.60327
2.41	7.56006
2.404	7.57832
2.398	7.66231
2.392	7.65156
2.386	7.61808
2.38	7.6302
2.374	7.54555
2.368	7.61418
2.362	7.58787
2.356	7.56983
2.35	7.65936
2.344	7.63681
2.338	7.6187
2.332	7.58528
2.326	7.6299
2.32	7.57071
2.314	7.60842
2.308	7.58401
2.302	7.57998
2.296	7.54754
2.29	7.62109
2.284	7.54439
2.278	7.59056
2.272	7.56387
2.266	7.53276
2.26	7.49705
2.254	7.5218
2.248	7.62627
2.242	7.59676
2.236	7.52373
2.23	7.55013
2.224	7.49877
2.218	7.58568
2.212	7.65171
2.206	7.5895
2.2	7.58792
2.194	7.54146
2.188	7.52198
2.182	7.54918
2.176	7.57988
2.17	7.60909
2.164	7.58806
2.158	7.5796
2.152	7.6628
2.146	7.60415
2.14	7.66237
2.134	7.55327
2.128	7.55428
2.122	7.56355
2.116	7.53423
2.11	7.49198
2.104	7.45008
2.098	7.38068
2.092	7.45066
2.086	7.40613
2.08	7.49566
2.074	7.45803
2.068	7.42159
2.062	7.40415
2.056	7.45487
2.05	7.47363
2.044	7.44478
2.038	7.44404
2.032	7.4445
2.026	7.4495
2.02	7.4056
2.014	7.3995
2.008	7.41387
2.002	7.42661
1.996	7.39189
1.99	7.36741
1.984	7.38422
1.978	7.37432
1.972	7.31795
1.966	7.2987
1.96	7.34148
1.954	7.25378
1.948	7.33118
1.942	7.29838
1.936	7.26529
1.93	7.22261
1.924	7.22872
1.918	7.27051
1.912	7.32713
1.906	7.26527
1.9	7.36678
1.894	7.35511
1.888	7.36587
1.882	7.41589
1.876	7.34921
1.87	7.3921
1.864	7.39835
1.858	7.45435
1.852	7.43224
1.846	7.5153
1.84	7.40015
1.834	7.409
1.828	7.47473
1.822	7.41188
1.816	7.41485
1.81	7.40422
1.804	7.4401
1.798	7.44414
1.792	7.40524
1.786	7.422
1.78	7.3707
1.774	7.41052
1.768	7.41217
1.762	7.44773
1.756	7.46771
1.75	7.42693
1.744	7.38731
1.738	7.44747
1.732	7.44467
1.726	7.40862
1.72	7.46061
1.714	7.46659
1.708	7.39287
1.702	7.52085
1.696	7.46456
1.69	7.54683
1.684	7.47081
1.678	7.55385
1.672	7.45431
1.666	7.41531
1.66	7.44751
1.654	7.50888
1.648	7.42361
1.642	7.55944
1.636	7.53801
1.63	7.47825
1.624	7.43493
1.618	7.50177
1.612	7.45589
1.606	7.51079
1.6	7.47567
1.594	7.43068
1.588	7.47707
1.582	7.4719
1.576	7.41695
1.57	7.48241
1.564	7.47477
1.558	7.48253
1.552	7.48787
1.546	7.49157
1.54	7.43568
1.534	7.42346
1.528	7.47918
1.522	7.43307
1.516	7.45696
1.51	7.50382
1.504	7.43271
1.498	7.41022
1.492	7.41181
1.486	7.42332
1.48	7.46006
1.474	7.42072
1.468	7.43115
1.462	7.37801
1.456	7.45609
1.45	7.40853
1.444	7.42524
1.438	7.45652
1.432	7.38354
1.426	7.46068
1.42	7.47501
1.414	7.38295
1.408	7.44764
1.402	7.4389
1.396	7.4854
1.39	7.52644
1.384	7.46307
1.378	7.45688
1.372	7.47782
1.366	7.5682
1.36	7.45296
1.354	7.51298
1.348	7.53113
1.342	7.48364
1.336	7.51299
1.33	7.52614
1.324	7.48375
1.318	7.52245
1.312	7.46915
1.306	7.54093
1.3	7.51553
1.294	7.5373
1.288	7.53773
1.282	7.60215
1.276	7.66914
1.27	7.61595
1.264	7.55403
1.258	7.58644
1.252	7.59569
1.246	7.66173
1.24	7.68097
1.234	7.70094
1.228	7.65005
1.222	7.71508
1.216	7.72279
1.21	7.70409
1.204	7.74487
1.198	7.74102
1.192	7.78843
1.186	7.85034
1.18	7.81601
1.174	7.81199
1.168	7.83826
1.162	7.86058
1.156	7.83712
1.15	7.87212
1.144	7.88417
1.138	7.94162
1.132	8.00772
1.126	7.95758
1.12	7.95922
1.114	8.02924
1.108	8.00908
1.102	8.04888
1.096	8.04881
1.09	8.05728
1.084	8.10471
1.078	8.14819
1.072	8.10968
1.066	8.15086
1.06	8.20133
1.054	8.1441
1.048	8.20244
1.042	8.19435
1.036	8.19234
1.03	8.22713
1.024	8.27701
1.018	8.33125
1.012	8.36509
1.006	8.31275
1	8.32432
0.994	8.33522
0.988	8.41573
0.982	8.34272
0.976	8.36916
0.97	8.46012
0.964	8.38547
0.958	8.42743
0.952	8.39397
0.946	8.47273
0.94	8.42686
0.934	8.46188
0.928	8.49191
0.922	8.50573
0.916	8.51188
0.91	8.53184
0.904	8.55932
0.898	8.56487
0.892	8.5558
0.886	8.58066
0.88	8.59458
0.874	8.57591
0.868	8.59921
0.862	8.61182
0.856	8.88749
0.85	8.92945
0.844	8.94805
0.838	8.97248
0.832	8.98579
0.826	8.99323
0.82	9.00962
0.814	9.02053
0.808	9.04421
0.802	9.06333
0.796	9.06727
0.79	9.08416
0.784	9.08825
0.778	9.10103
0.772	9.09859
0.766	9.11593
0.76	9.13349
0.754	9.13485
0.748	9.15026
0.742	9.15415
0.736	9.16973
0.73	9.17558
0.724	9.18936
0.718	9.19633
0.712	9.17799
0.706	9.19035
0.7	9.19105
0.694	9.20031
0.688	9.20549
0.682	9.20946
0.676	9.21544
0.67	9.21901
0.664	9.22211
0.658	9.22457
0.652	9.22637
0.646	9.22899
0.64	9.22632
0.634	9.22738
0.628	9.22819
0.622	9.22797
0.616	9.22293
0.61	9.22101
0.604	9.21512
0.598	9.21691
0.592	9.21639
0.586	9.20661
0.58	9.20021
0.574	9.19073
0.568	9.18249
0.562	9.17028
0.556	9.159
0.55	9.14397
0.544	9.13036
0.538	9.11617
0.532	9.0958
0.526	9.07618
0.52	9.05959
0.514	9.03539
0.508	9.018
0.502	8.9969
0.496	8.97293
0.49	8.93667
0.484	8.89851
0.478	8.85982
0.472	8.81652
0.466	8.79799
0.46	8.75092
0.454	8.70008
0.448	8.64607
0.442	8.59315
0.436	8.5367
0.43	8.49018
0.424	8.43561
0.418	8.3714
0.412	8.29043
0.406	8.19441
0.4	8.09666
