Name: Corundum Al_2O_3
Type: Mineral
Class: Oxides
Particle Size: 125-500um
Sample No.: O-15A
Owner: JPL
Description: Synthetic corundum.
Measurement: Hemispherical reflectance
X Units: Wavelength (micrometers)
Y Units: Reflectance (percent)
wavelength	value
15.385	10.5534
15.116	10.1403
14.856	9.948
14.605	9.3103
14.362	8.5893
14.128	8.6395
13.9	8.1956
13.68	8.191
13.467	8.0555
13.26	8.2571
13.06	8.2879
12.866	8.4334
12.677	8.6965
12.494	8.7873
12.316	8.749
12.143	8.9212
11.974	8.7587
11.811	8.6364
11.651	8.4402
11.496	8.3922
11.345	8.1639
11.198	6.9813
11.055	5.4803
10.915	3.6975
10.779	2.1996
10.647	1.4122
10.517	0.7737
10.39	0.3513
10.267	0.3285
10.146	0.2027
10.029	0.1586
9.914	0.1975
9.801	0
9.691	0.1711
9.584	0
9.479	0.0527
9.376	0.1316
9.275	0.014
9.177	0.04
9.08	0
8.986	0.0967
8.893	0.2443
8.803	0.0494
8.714	0.31
8.627	0.3684
8.542	0.27
8.458	0.4141
8.376	0.5962
8.296	0.8681
8.217	1.0403
8.139	1.2286
8.063	1.4263
7.989	1.6173
7.916	1.5399
7.844	1.7609
7.773	1.7797
7.704	1.9463
7.636	2.1151
7.569	2.162
7.503	2.2879
7.439	2.4427
7.375	2.7485
7.313	2.548
7.252	2.0232
7.191	0.9689
7.132	1.1812
7.073	1.6296
7.016	2.2311
6.96	3.2
6.904	4.3453
6.849	5.5065
6.795	5.8882
6.742	5.7481
6.69	5.7229
6.639	5.7611
6.588	5.7117
6.538	5.2934
6.489	4.4764
6.441	3.6794
6.393	2.9126
6.346	2.5334
6.3	2.3795
6.254	2.925
6.209	4.0023
6.165	5.8911
6.121	7.6324
6.078	9.1434
6.036	10.4933
5.994	11.8125
5.953	13.2753
5.912	15.0303
5.872	16.696
5.832	18.0981
5.793	19.4062
5.755	20.6287
5.716	21.7706
5.679	22.4406
5.642	22.7757
5.605	23.3599
5.569	23.7971
5.533	23.5992
5.498	22.8957
5.463	23.5274
5.429	24.6269
5.395	25.4867
5.362	26.0122
5.329	26.2347
5.296	26.3761
5.264	26.7673
5.232	27.0369
5.2	27.1002
5.169	27.1726
5.139	27.052
5.108	26.7144
5.078	26.308
5.049	26.1537
5.019	26.1989
4.99	26.2905
4.962	26.286
4.933	26.1909
4.905	25.9968
4.878	25.7051
4.85	25.4067
4.823	25.163
4.796	24.8181
4.77	24.5081
4.744	24.5504
4.718	24.6152
4.692	24.7054
4.667	25.05
4.642	25.3532
4.617	25.9941
4.592	26.8137
4.568	27.5012
4.544	28.3222
4.52	28.7367
4.497	29.2052
4.474	29.3238
4.45	29.5205
4.428	29.585
4.405	29.608
4.383	29.5539
4.361	29.3967
4.339	29.219
4.317	29.0351
4.296	28.8619
4.274	28.7417
4.253	28.7374
4.233	28.6534
4.212	28.5395
4.191	28.4433
4.171	28.1901
4.151	27.777
4.131	27.3288
4.112	26.7605
4.092	26.1588
4.073	25.1692
4.054	24.4978
4.035	24.0723
4.016	23.7205
3.998	23.2137
3.979	22.6678
3.961	22.1694
3.943	22.1481
3.925	22.3933
3.907	23.213
3.89	24.118
3.872	24.8771
3.855	25.4664
3.838	25.8713
3.821	26.284
3.804	26.1891
3.787	25.9644
3.771	25.5415
3.754	25.1497
3.738	24.6868
3.722	24.3355
3.706	24.0453
3.69	23.7629
3.675	23.5875
3.659	23.1959
3.644	22.9245
3.628	22.3743
3.613	22.101
3.598	21.7083
3.583	21.172
3.568	20.5877
3.554	19.8606
3.539	19.2406
3.525	18.6956
3.51	17.9856
3.496	17.544
3.482	16.9951
3.468	16.6095
3.454	16.1965
3.441	15.7646
3.427	15.2586
3.413	14.791
3.4	14.4717
3.387	14.2532
3.373	13.8887
3.36	13.781
3.347	13.4563
3.334	13.2827
3.321	12.9632
3.309	12.7508
3.296	12.2906
3.284	12.022
3.271	11.686
3.259	11.2366
3.247	10.7327
3.234	10.7066
3.222	10.4045
3.21	10.0553
3.199	9.73
3.187	9.3127
3.175	8.9355
3.163	8.6458
3.152	8.305
3.14	8.0299
3.129	7.5908
3.118	7.5567
3.107	6.941
3.095	6.6698
3.084	6.3231
3.073	5.8376
3.063	5.504
3.052	5.0418
3.041	4.7983
3.03	4.5154
3.02	4.8685
3.009	5.1594
2.999	5.3057
2.988	5.5665
2.978	5.6992
2.968	5.798
2.958	5.937
2.948	6.1273
2.938	6.3249
2.928	6.5413
2.918	6.6751
2.908	6.6754
2.898	7.001
2.888	7.0214
2.879	7.0289
2.869	7.2111
2.86	7.5595
2.85	7.8018
2.841	8.2725
2.832	8.6287
2.822	9.1714
2.813	9.6121
2.804	10.4423
2.795	11.9978
2.786	13.3615
2.777	14.8005
2.768	15.878
2.759	17.1935
2.751	19.4307
2.742	21.1653
2.733	22.8383
2.725	26.116
2.716	27.9086
2.707	28.5097
2.699	32.4107
2.691	40.2429
2.682	45.7281
2.674	50.4639
2.666	53.7345
2.658	57.1179
2.649	59.0598
2.641	60.6063
2.633	61.5135
2.625	62.5381
2.617	62.968
2.609	63.8076
2.602	64.4542
2.594	64.5657
2.586	65.3798
2.578	65.9172
2.571	66.1114
2.563	66.3497
2.555	66.7735
2.548	66.9806
2.54	67.351
2.533	67.6239
2.525	67.8928
2.518	68.2493
2.511	68.7241
2.504	69.0302
2.496	69.3824
2.489	69.6733
2.482	70.0119
2.475	70.4769
2.468	70.5782
2.461	70.8578
2.454	71.1401
2.447	71.4374
2.44	71.8851
2.433	71.9368
2.426	72.4293
2.419	72.6106
2.413	72.8716
2.406	73.1288
2.399	73.4794
2.393	73.4739
2.386	73.8495
2.379	73.8991
2.373	73.8771
2.366	73.6158
2.36	73.3953
2.354	73.3039
2.347	73.9681
2.341	74.602
2.334	75.0263
2.328	75.1962
2.322	75.3374
2.316	75.6942
2.309	75.8382
2.303	76.1614
2.297	76.3587
2.291	76.5799
2.285	76.5425
2.279	76.7887
2.273	76.7014
2.267	76.811
2.261	77.0693
2.255	77.016
2.249	77.2768
2.244	77.3572
2.238	77.7175
2.232	78.0439
2.226	78.277
2.22	78.4677
2.215	78.6812
2.209	79.0713
2.204	79.2932
2.198	79.622
2.192	79.7947
2.187	80.279
2.181	80.2761
2.176	80.2828
2.17	80.5954
2.165	80.7504
2.159	80.7293
2.154	80.7476
2.149	80.9763
2.143	80.9311
2.138	81.0738
2.133	80.9587
2.128	81.2112
2.122	81.0647
2.117	81.3642
2.112	81.1209
2.107	81.1349
2.102	81.2074
2.097	80.8971
2.091	81.1195
2.086	81.276
2.081	80.4326
2.076	80.7733
2.071	80.5539
2.066	80.5373
2.062	80.2578
2.057	80.3519
2.052	80.3668
2.047	80.0793
2.042	80.1376
2.037	80.119
2.032	80.0205
2.028	80.4043
2.023	80.0419
2.018	79.9965
2.014	80.0614
2.009	79.9171
2.004	80.0492
