Name: Prehnite Ca_2Al_2Si_3O_10(OH)_2
Type: Mineral
Class: Silicates
Subclass: Phyllosilicates
Particle Size: 0-45um
Sample No.: PS-21A
Owner: JPL
Wavelength Range: VNIR-SWIR
Origin: USA, Virginia, Centerville
Measurement: Hemispherical reflectance
X Units: Wavelength (micrometers)
Y Units: Reflectance (percent)
wavelength	value
0.4	74.78
0.403	74.97
0.406	75.05
0.409	75.21
0.412	75.34
0.415	75.32
0.418	75.4
0.421	75.26
0.424	75.41
0.427	75.44
0.43	75.64
0.433	75.98
0.436	76.26
0.439	76.45
0.442	76.58
0.445	77.03
0.448	77.03
0.451	77.18
0.454	77.28
0.457	77.36
0.46	77.55
0.463	77.59
0.466	77.85
0.469	77.91
0.472	78.03
0.475	78.15
0.478	78.2
0.481	78.37
0.484	78.29
0.487	78.44
0.49	78.37
0.493	78.53
0.496	78.72
0.499	78.72
0.502	78.77
0.505	78.79
0.508	78.77
0.511	79.07
0.514	78.98
0.517	79.28
0.52	79.22
0.523	79.11
0.526	79.31
0.529	79.16
0.532	79.37
0.535	79.28
0.538	79.24
0.541	79.42
0.544	79.31
0.547	79.4
0.55	79.47
0.553	79.44
0.556	79.35
0.559	79.27
0.562	79.85
0.565	79.88
0.568	79.73
0.571	79.56
0.574	79.6
0.577	79.68
0.58	79.42
0.583	79.3
0.586	79.54
0.589	79.54
0.592	79.64
0.595	79.57
0.598	79.51
0.601	79.74
0.604	79.68
0.607	79.93
0.61	79.76
0.613	79.72
0.616	79.71
0.619	79.59
0.622	79.86
0.625	79.79
0.628	79.85
0.631	79.69
0.634	79.78
0.637	79.88
0.64	79.88
0.643	79.88
0.646	79.72
0.649	79.92
0.652	79.94
0.655	80
0.658	79.93
0.661	79.77
0.664	79.9
0.667	80.13
0.67	80.09
0.673	80.05
0.676	79.82
0.679	79.98
0.682	80.04
0.685	80.19
0.688	80.13
0.691	79.93
0.694	80.04
0.697	80.2
0.7	80.09
0.703	80.22
0.706	80.06
0.709	80.1
0.712	80.18
0.715	80.22
0.718	80.14
0.721	80.22
0.724	80.28
0.727	80.31
0.73	80.15
0.733	80.18
0.736	80.25
0.739	80.35
0.742	80.32
0.745	80.32
0.748	80.34
0.751	80.36
0.754	80.31
0.757	80.35
0.76	80.26
0.763	80.39
0.766	80.2
0.769	80.37
0.772	80.34
0.775	80.26
0.778	80.35
0.781	80.23
0.784	80.37
0.787	80.5
0.79	80.36
0.793	80.37
0.796	80.31
0.799	80.41
0.808	80.55
0.82	80.62
0.832	80.55
0.844	80.55
0.856	80.6
0.868	80.56
0.88	80.67
0.892	80.6
0.904	80.51
0.916	80.5
0.928	80.59
0.94	80.73
0.952	80.58
0.964	80.66
0.976	80.61
0.988	80.69
1	80.56
1.012	80.52
1.024	80.66
1.036	80.83
1.048	80.79
1.06	80.73
1.072	80.86
1.084	80.94
1.096	81.02
1.108	81.08
1.12	81.1
1.132	81.02
1.144	81.09
1.156	81.01
1.168	81.12
1.18	81.16
1.192	81.13
1.204	81.18
1.216	81.13
1.228	81.28
1.24	81.19
1.252	81.08
1.264	81.11
1.276	81.06
1.288	80.89
1.3	80.88
1.312	80.98
1.324	80.94
1.336	81.1
1.348	81.27
1.36	81.21
1.372	81.06
1.384	80.96
1.396	80.93
1.408	80.78
1.42	80.44
1.432	79.65
1.444	79.48
1.456	78.43
1.468	71.19
1.48	72.88
1.492	77.42
1.504	79.84
1.516	80.62
1.528	80.85
1.54	80.86
1.552	81.03
1.564	81.17
1.576	81.14
1.588	81.2
1.6	81.09
1.612	81.11
1.624	81.25
1.636	81.26
1.648	81.18
1.66	81.21
1.672	81.37
1.684	81.31
1.696	81.3
1.708	81.07
1.72	80.95
1.732	80.87
1.744	80.87
1.756	80.86
1.768	80.8
1.78	80.86
1.792	80.87
1.804	80.81
1.816	80.57
1.828	80.23
1.84	80.06
1.852	79.87
1.864	79.53
1.876	79.03
1.888	78.73
1.9	78.37
1.912	78.37
1.924	78.44
1.936	78.41
1.948	78.8
1.96	78.97
1.972	79.17
1.984	79.22
1.996	79.35
2.008	79.34
2.02	79.51
2.032	79.64
2.044	79.79
2.056	79.68
2.068	79.77
2.08	79.72
2.092	79.65
2.104	79.59
2.116	79.61
2.128	79.26
2.14	79.14
2.152	78.7
2.164	78.21
2.176	77.72
2.188	76.89
2.2	74.7
2.212	71.21
2.224	67.94
2.236	67.5
2.248	69.01
2.26	69.08
2.272	67.51
2.284	67.26
2.296	67.09
2.308	62.5
2.32	55.14
2.332	49.99
2.344	47.06
2.356	45.17
2.368	46.52
2.38	48.74
2.392	50.82
2.404	53.86
2.416	57.63
2.428	61.09
2.44	62.95
2.452	63.2
2.464	62.24
2.476	61.59
2.488	61.23
2.5	60.56
