Name: Labradorite (Feldspar) (NaSi,CaAl)AlSi_2O_8
Type: Mineral
Class: Silicates
Subclass: Tectosilicates
Particle Size: 0-45um
Sample No.: TS-2B
Owner: JPL
Origin: Canada, Quebec, Lake St. John.
Measurement: Hemispherical reflectance
X Units: Wavelength (micrometers)
Y Units: Reflectance (percent)
wavelength	value
2.5	48.2097
2.494	48.4461
2.488	48.4063
2.482	48.3714
2.476	48.271
2.47	48.4823
2.464	48.3863
2.458	48.4028
2.452	48.4443
2.446	48.5095
2.44	48.4426
2.434	48.5946
2.428	48.6716
2.422	48.6693
2.416	48.6671
2.41	48.6749
2.404	48.8231
2.398	48.7893
2.392	48.8005
2.386	48.8059
2.38	48.9667
2.374	48.9581
2.368	48.9861
2.362	49.0273
2.356	49.0093
2.35	49.0227
2.344	48.9914
2.338	48.9896
2.332	48.9061
2.326	48.9629
2.32	48.8998
2.314	48.8622
2.308	48.9433
2.302	48.9403
2.296	48.8637
2.29	48.8715
2.284	48.8622
2.278	48.8426
2.272	48.8106
2.266	48.8031
2.26	48.8024
2.254	48.6966
2.248	48.7106
2.242	48.7052
2.236	48.7419
2.23	48.8145
2.224	48.7036
2.218	48.7462
2.212	48.8874
2.206	48.8901
2.2	48.9342
2.194	48.9769
2.188	49.0765
2.182	49.0894
2.176	49.1839
2.17	49.309
2.164	49.3238
2.158	49.3896
2.152	49.4354
2.146	49.4868
2.14	49.5123
2.134	49.4115
2.128	49.3386
2.122	49.2068
2.116	49.0048
2.11	48.901
2.104	48.7017
2.098	48.6328
2.092	48.7028
2.086	48.7214
2.08	48.7212
2.074	48.7232
2.068	48.7738
2.062	48.7749
2.056	48.8794
2.05	48.8527
2.044	48.9014
2.038	48.9015
2.032	48.8935
2.026	48.8662
2.02	48.8776
2.014	48.9096
2.008	48.8777
2.002	48.8353
1.996	48.797
1.99	48.8158
1.984	48.7011
1.978	48.7276
1.972	48.6819
1.966	48.6344
1.96	48.5401
1.954	48.6824
1.948	48.6174
1.942	48.5591
1.936	48.5763
1.93	48.5624
1.924	48.5734
1.918	48.4758
1.912	48.5182
1.906	48.689
1.9	48.6601
1.894	48.7479
1.888	48.7399
1.882	48.7792
1.876	48.9377
1.87	48.8381
1.864	48.9261
1.858	48.9215
1.852	48.9207
1.846	48.8862
1.84	48.8596
1.834	48.8874
1.828	48.9185
1.822	48.9334
1.816	48.9121
1.81	48.9134
1.804	48.9134
1.798	48.8759
1.792	48.9518
1.786	48.8603
1.78	48.8267
1.774	48.7772
1.768	48.8168
1.762	48.8452
1.756	48.8096
1.75	48.7566
1.744	48.7767
1.738	48.8182
1.732	48.8053
1.726	48.8578
1.72	48.7761
1.714	48.7735
1.708	48.8357
1.702	48.7812
1.696	48.8266
1.69	48.7405
1.684	48.8248
1.678	48.7034
1.672	48.7693
1.666	48.7008
1.66	48.7681
1.654	48.6945
1.648	48.7845
1.642	48.7901
1.636	48.7039
1.63	48.7424
1.624	48.7458
1.618	48.6983
1.612	48.7078
1.606	48.7344
1.6	48.8655
1.594	48.7712
1.588	48.7785
1.582	48.7234
1.576	48.7419
1.57	48.7387
1.564	48.6689
1.558	48.7538
1.552	48.7205
1.546	48.7068
1.54	48.7145
1.534	48.721
1.528	48.7391
1.522	48.6892
1.516	48.7014
1.51	48.7806
1.504	48.7031
1.498	48.7274
1.492	48.7221
1.486	48.7696
1.48	48.7246
1.474	48.7083
1.468	48.6899
1.462	48.7055
1.456	48.7625
1.45	48.7767
1.444	48.7331
1.438	48.7953
1.432	48.7175
1.426	48.7476
1.42	48.7725
1.414	48.6381
1.408	48.7696
1.402	48.8496
1.396	48.8295
1.39	48.9383
1.384	48.9301
1.378	48.9587
1.372	49.0576
1.366	48.8604
1.36	48.929
1.354	49.0068
1.348	49.0376
1.342	49.005
1.336	48.9748
1.33	48.9937
1.324	49.0071
1.318	49.0326
1.312	49.0307
1.306	49.057
1.3	49.1326
1.294	49.0577
1.288	49.1105
1.282	49.1466
1.276	49.0999
1.27	49.0668
1.264	49.123
1.258	49.1806
1.252	49.2293
1.246	49.2082
1.24	49.1903
1.234	49.2524
1.228	49.2687
1.222	49.3189
1.216	49.3489
1.21	49.3342
1.204	49.3914
1.198	49.4216
1.192	49.4108
1.186	49.4385
1.18	49.537
1.174	49.5595
1.168	49.6162
1.162	49.6484
1.156	49.6071
1.15	49.6502
1.144	49.6394
1.138	49.8083
1.132	49.7533
1.126	49.7822
1.12	49.8619
1.114	49.8599
1.108	49.9815
1.102	49.954
1.096	49.9762
1.09	50.1065
1.084	50.1566
1.078	50.1224
1.072	50.1637
1.066	50.1775
1.06	50.2532
1.054	50.3157
1.048	50.3327
1.042	50.3658
1.036	50.4396
1.03	50.5212
1.024	50.55
1.018	50.5025
1.012	50.6508
1.006	50.5857
1	50.6044
0.994	50.6474
0.988	50.689
0.982	50.6856
0.976	50.6558
0.97	50.7774
0.964	50.8012
0.958	50.8032
0.952	50.829
0.946	50.7262
0.94	50.819
0.934	50.8005
0.928	50.7914
0.922	50.7575
0.916	50.7425
0.91	50.7459
0.904	50.7294
0.898	50.622
0.892	50.6297
0.886	50.6217
0.88	50.5937
0.874	50.552
0.868	50.5175
0.862	50.5138
0.856	50.4202
0.85	50.3835
0.844	50.3918
0.838	50.3218
0.832	50.2422
0.826	50.2734
0.82	50.2156
0.814	50.2047
0.808	50.148
0.802	50.1508
0.796	50
0.79	49.924
0.784	49.8671
0.778	49.7542
0.772	49.6801
0.766	49.5645
0.76	49.4692
0.754	49.3598
0.748	49.2355
0.742	49.1124
0.736	48.9772
0.73	48.8438
0.724	48.7074
0.718	48.5617
0.712	48.4082
0.706	48.2749
0.7	48.1416
0.694	48.0023
0.688	47.8712
0.682	47.7343
0.676	47.6011
0.67	47.4902
0.664	47.38
0.658	47.2675
0.652	47.1582
0.646	47.0694
0.64	46.973
0.634	46.8699
0.628	46.7674
0.622	46.6802
0.616	46.577
0.61	46.4925
0.604	46.3955
0.598	46.3
0.592	46.2246
0.586	46.092
0.58	45.9713
0.574	45.8384
0.568	45.6912
0.562	45.5633
0.556	45.4221
0.55	45.3204
0.544	45.22
0.538	45.1448
0.532	45.0913
0.526	45.0446
0.52	45.0063
0.514	44.9588
0.508	44.9096
0.502	44.8493
0.496	44.8022
0.49	44.7404
0.484	44.6544
0.478	44.65
0.472	44.6249
0.466	44.6138
0.46	44.5742
0.454	44.5011
0.448	44.4394
0.442	44.339
0.436	44.245
0.43	44.1255
0.424	43.9723
0.418	43.8624
0.412	43.7643
0.406	43.6633
0.4	43.528
