Name: Scheelite CaWO_4
Type: Mineral
Class: Tungstates
Particle Size: 45-125um
Sample No.: T-1A
Owner: JPL
Origin: USA, California, Kern County, Atolia.
Measurement: Hemispherical reflectance
X Units: Wavelength (micrometers)
Y Units: Reflectance (percent)
wavelength	value
2.5	64.826
2.494	64.8511
2.488	65.0655
2.482	65.2821
2.476	65.4387
2.47	65.8024
2.464	65.9612
2.458	66.205
2.452	66.4867
2.446	66.6541
2.44	66.8851
2.434	67.1431
2.428	67.3608
2.422	67.7486
2.416	68.076
2.41	68.2923
2.404	68.538
2.398	68.7033
2.392	68.9515
2.386	69.1095
2.38	69.3619
2.374	69.5017
2.368	69.5973
2.362	69.7045
2.356	69.7948
2.35	69.7135
2.344	69.72
2.338	69.8414
2.332	70.0431
2.326	70.3538
2.32	70.5484
2.314	70.7743
2.308	70.9137
2.302	71.1129
2.296	71.2754
2.29	71.3995
2.284	71.5582
2.278	71.7682
2.272	71.8538
2.266	72.01
2.26	72.0083
2.254	72.027
2.248	72.1044
2.242	72.1821
2.236	72.1845
2.23	72.1458
2.224	72.0053
2.218	71.7692
2.212	71.4297
2.206	71.2209
2.2	71.3677
2.194	71.5604
2.188	71.9676
2.182	72.5508
2.176	73.1343
2.17	73.6311
2.164	73.9348
2.158	74.1517
2.152	74.4029
2.146	74.5547
2.14	74.5093
2.134	74.3395
2.128	74.2694
2.122	74.0114
2.116	73.7885
2.11	73.5223
2.104	73.3412
2.098	73.1716
2.092	73.2107
2.086	73.321
2.08	73.4369
2.074	73.4743
2.068	73.494
2.062	73.5125
2.056	73.4555
2.05	73.5151
2.044	73.5617
2.038	73.4439
2.032	73.3701
2.026	73.2537
2.02	73.0793
2.014	72.8743
2.008	72.7104
2.002	72.4402
1.996	72.2428
1.99	71.8995
1.984	71.6136
1.978	71.3395
1.972	71.1067
1.966	70.7437
1.96	70.5991
1.954	70.2897
1.948	70.0717
1.942	69.8453
1.936	69.5807
1.93	69.2948
1.924	69.1298
1.918	68.8802
1.912	68.9564
1.906	69.4631
1.9	70.5943
1.894	72.1692
1.888	73.5927
1.882	74.5267
1.876	75.0402
1.87	75.3541
1.864	75.6876
1.858	75.785
1.852	75.8953
1.846	75.9707
1.84	75.9514
1.834	75.9099
1.828	75.9229
1.822	75.9282
1.816	75.9447
1.81	76.0011
1.804	75.8651
1.798	75.9757
1.792	75.8842
1.786	75.8113
1.78	75.8346
1.774	75.8095
1.768	75.7849
1.762	75.8005
1.756	75.7787
1.75	75.8269
1.744	75.8582
1.738	75.8563
1.732	75.8127
1.726	75.8428
1.72	75.8351
1.714	75.8004
1.708	75.8284
1.702	75.8229
1.696	75.8321
1.69	75.8035
1.684	75.8135
1.678	75.7481
1.672	75.7539
1.666	75.7152
1.66	75.7313
1.654	75.7062
1.648	75.7355
1.642	75.5814
1.636	75.6542
1.63	75.584
1.624	75.538
1.618	75.5258
1.612	75.4328
1.606	75.4186
1.6	75.4479
1.594	75.4263
1.588	75.3138
1.582	75.1912
1.576	75.2422
1.57	75.0145
1.564	74.9933
1.558	74.8715
1.552	74.8348
1.546	74.6799
1.54	74.5969
1.534	74.4884
1.528	74.3694
1.522	74.2581
1.516	74.1084
1.51	73.9965
1.504	73.8454
1.498	73.6742
1.492	73.5204
1.486	73.3183
1.48	73.1454
1.474	73.0182
1.468	72.7246
1.462	72.5773
1.456	72.5071
1.45	72.341
1.444	72.2329
1.438	71.9409
1.432	71.7151
1.426	71.3201
1.42	70.801
1.414	70.3159
1.408	70.4575
1.402	70.7546
1.396	71.2707
1.39	71.7329
1.384	71.9092
1.378	71.9501
1.372	71.8967
1.366	71.7709
1.36	71.6018
1.354	71.4963
1.348	71.3021
1.342	71.1162
1.336	71.0128
1.33	70.8448
1.324	70.6603
1.318	70.4218
1.312	70.3677
1.306	70.1492
1.3	69.9871
1.294	69.757
1.288	69.6661
1.282	69.5398
1.276	69.313
1.27	69.1721
1.264	68.9644
1.258	68.8164
1.252	68.7
1.246	68.5099
1.24	68.3375
1.234	68.172
1.228	68.008
1.222	67.8417
1.216	67.6203
1.21	67.5125
1.204	67.307
1.198	67.1396
1.192	66.9627
1.186	66.8063
1.18	66.6166
1.174	66.4752
1.168	66.1744
1.162	65.9861
1.156	65.7927
1.15	65.5659
1.144	65.3454
1.138	65.1564
1.132	64.8692
1.126	64.5768
1.12	64.3782
1.114	64.0817
1.108	63.7715
1.102	63.5474
1.096	63.2143
1.09	62.9952
1.084	62.7253
1.078	62.5647
1.072	62.3321
1.066	62.1942
1.06	61.9502
1.054	61.8016
1.048	61.6548
1.042	61.5414
1.036	61.4034
1.03	61.2807
1.024	61.1881
1.018	61.1073
1.012	61.1229
1.006	61.0094
1	60.9688
0.994	60.9204
0.988	60.9135
0.982	60.8715
0.976	60.8658
0.97	60.9028
0.964	60.8052
0.958	60.8579
0.952	60.925
0.946	60.9387
0.94	60.9003
0.934	60.9936
0.928	61.0444
0.922	61.058
0.916	61.077
0.91	61.1556
0.904	61.1641
0.898	61.2289
0.892	61.2449
0.886	61.2058
0.88	61.3005
0.874	61.3611
0.868	61.4007
0.862	61.4571
0.856	61.9484
0.85	62.0554
0.844	62.1397
0.838	62.218
0.832	62.3374
0.826	62.4616
0.82	62.5634
0.814	62.5882
0.808	62.7062
0.802	62.7524
0.796	62.7871
0.79	62.9003
0.784	63.0129
0.778	63.0228
0.772	63.0157
0.766	63.0282
0.76	62.9808
0.754	62.8941
0.748	62.8436
0.742	62.7193
0.736	62.6248
0.73	62.4638
0.724	62.3068
0.718	62.0675
0.712	61.8393
0.706	61.5987
0.7	61.359
0.694	61.0863
0.688	60.8266
0.682	60.5983
0.676	60.3711
0.67	60.1037
0.664	59.8634
0.658	59.6512
0.652	59.4485
0.646	59.2283
0.64	58.9891
0.634	58.6541
0.628	58.409
0.622	58.2113
0.616	58.0185
0.61	57.8302
0.604	57.6004
0.598	57.3545
0.592	57.0294
0.586	56.6217
0.58	56.1914
0.574	55.6705
0.568	55.0795
0.562	54.3608
0.556	53.5263
0.55	52.6408
0.544	51.7218
0.538	50.782
0.532	49.8373
0.526	48.9209
0.52	48.0415
0.514	47.2141
0.508	46.4198
0.502	45.6688
0.496	44.9397
0.49	44.2831
0.484	43.7313
0.478	43.3369
0.472	42.9278
0.466	42.5731
0.46	42.1911
0.454	41.7223
0.448	41.1888
0.442	40.5389
0.436	39.8194
0.43	39.0363
0.424	38.3534
0.418	37.7161
0.412	37.1511
0.406	36.5539
0.4	35.9281
