Name: Dolomite CaMg(CO_3)_2
Type: Mineral
Class: Carbonates
Particle Size: 45-125um
Sample No.: C-5A
Owner: JPL
Origin: USA, Colorado.
Description: Red banded dolomite.
Measurement: Hemispherical reflectance
X Units: Wavelength (micrometers)
Y Units: Reflectance (percent)
wavelength	value
2.5	44.7167
2.494	45.6473
2.488	47.1905
2.482	48.3108
2.476	49.5234
2.47	50.3671
2.464	50.9937
2.458	51.7957
2.452	52.7421
2.446	54.2575
2.44	55.891
2.434	57.6211
2.428	59.0945
2.422	60.6785
2.416	61.8489
2.41	62.802
2.404	63.467
2.398	63.9544
2.392	64.5297
2.386	64.9686
2.38	65.5074
2.374	66.0432
2.368	66.2941
2.362	66.3364
2.356	65.743
2.35	64.4684
2.344	62.4457
2.338	59.8841
2.332	57.4316
2.326	55.597
2.32	54.7883
2.314	54.8226
2.308	55.3208
2.302	56.1435
2.296	56.8996
2.29	57.753
2.284	58.4303
2.278	59.0402
2.272	59.4633
2.266	60.0217
2.26	61.0383
2.254	62.1743
2.248	63.4315
2.242	64.4354
2.236	65.3383
2.23	65.8771
2.224	66.2849
2.218	66.5103
2.212	66.7232
2.206	67.0765
2.2	67.7463
2.194	68.1729
2.188	68.5548
2.182	68.8639
2.176	69.0416
2.17	69.2183
2.164	69.3812
2.158	69.489
2.152	69.3908
2.146	69.3539
2.14	69.3366
2.134	69.3404
2.128	69.2678
2.122	69.2577
2.116	69.1688
2.11	69.0495
2.104	68.8975
2.098	68.7891
2.092	68.8167
2.086	68.9478
2.08	68.9128
2.074	68.9139
2.068	68.9296
2.062	68.9439
2.056	68.9167
2.05	68.8789
2.044	68.7931
2.038	68.7394
2.032	68.6013
2.026	68.3748
2.02	68.1438
2.014	67.9346
2.008	67.6437
2.002	67.248
1.996	66.784
1.99	66.1839
1.984	65.708
1.978	65.3982
1.972	65.2791
1.966	65.1358
1.96	64.9757
1.954	64.8661
1.948	64.7634
1.942	64.6397
1.936	64.6316
1.93	64.7351
1.924	64.8183
1.918	65.0156
1.912	65.3056
1.906	65.8703
1.9	66.6689
1.894	67.5691
1.888	68.4394
1.882	68.9706
1.876	69.1535
1.87	69.0081
1.864	68.7794
1.858	68.8889
1.852	69.0359
1.846	69.2447
1.84	69.3743
1.834	69.4176
1.828	69.4614
1.822	69.4814
1.816	69.5828
1.81	69.5315
1.804	69.6559
1.798	69.6745
1.792	69.6151
1.786	69.591
1.78	69.5927
1.774	69.5079
1.768	69.6033
1.762	69.4702
1.756	69.4495
1.75	69.4427
1.744	69.4112
1.738	69.3975
1.732	69.3704
1.726	69.3836
1.72	69.37
1.714	69.3752
1.708	69.2894
1.702	69.2359
1.696	69.2349
1.69	69.2265
1.684	69.208
1.678	69.1482
1.672	69.1465
1.666	69.0971
1.66	69.027
1.654	69.0674
1.648	69.0757
1.642	69.0087
1.636	68.9668
1.63	68.9617
1.624	68.9152
1.618	68.8544
1.612	68.8916
1.606	68.84
1.6	68.7996
1.594	68.8025
1.588	68.7164
1.582	68.6477
1.576	68.5916
1.57	68.4773
1.564	68.4475
1.558	68.3857
1.552	68.3112
1.546	68.2641
1.54	68.187
1.534	68.1205
1.528	68.0543
1.522	68.1283
1.516	67.9654
1.51	67.8632
1.504	67.7345
1.498	67.6693
1.492	67.5727
1.486	67.4715
1.48	67.3625
1.474	67.2793
1.468	67.1134
1.462	67.0464
1.456	67.0669
1.45	66.999
1.444	66.9248
1.438	66.8174
1.432	66.7519
1.426	66.7112
1.42	66.5768
1.414	66.4327
1.408	66.7157
1.402	66.9
1.396	67.1447
1.39	67.3185
1.384	67.4689
1.378	67.5645
1.372	67.5602
1.366	67.5549
1.36	67.6651
1.354	67.5718
1.348	67.5677
1.342	67.5299
1.336	67.5226
1.33	67.4384
1.324	67.4502
1.318	67.4725
1.312	67.4433
1.306	67.4506
1.3	67.4231
1.294	67.3333
1.288	67.4663
1.282	67.3679
1.276	67.3778
1.27	67.3844
1.264	67.3341
1.258	67.3359
1.252	67.325
1.246	67.3237
1.24	67.2873
1.234	67.3007
1.228	67.2772
1.222	67.2766
1.216	67.2773
1.21	67.2604
1.204	67.1953
1.198	67.2463
1.192	67.2261
1.186	67.2091
1.18	67.1862
1.174	67.1524
1.168	67.1507
1.162	67.1219
1.156	67.0421
1.15	67.0749
1.144	67.0652
1.138	67.0156
1.132	66.9611
1.126	66.9407
1.12	66.9148
1.114	66.726
1.108	66.7658
1.102	66.695
1.096	66.5817
1.09	66.513
1.084	66.3926
1.078	66.3367
1.072	66.2865
1.066	66.1653
1.06	66.0321
1.054	65.9452
1.048	65.8166
1.042	65.6737
1.036	65.5516
1.03	65.4157
1.024	65.2214
1.018	65.0706
1.012	64.8922
1.006	64.6961
1	64.4935
0.994	64.1999
0.988	63.946
0.982	63.655
0.976	63.3165
0.97	62.9803
0.964	62.5773
0.958	62.2884
0.952	61.9067
0.946	61.5529
0.94	61.114
0.934	60.7336
0.928	60.4292
0.922	60.0734
0.916	59.7006
0.91	59.4294
0.904	59.1046
0.898	58.8085
0.892	58.5455
0.886	58.3073
0.88	58.0395
0.874	57.9048
0.868	57.7257
0.862	57.5928
0.856	57.7708
0.85	57.6925
0.844	57.5811
0.838	57.5176
0.832	57.4806
0.826	57.4421
0.82	57.468
0.814	57.4473
0.808	57.473
0.802	57.4436
0.796	57.4038
0.79	57.3598
0.784	57.3554
0.778	57.2395
0.772	57.114
0.766	57.0061
0.76	56.8263
0.754	56.5609
0.748	56.2988
0.742	55.9483
0.736	55.5567
0.73	55.1008
0.724	54.5967
0.718	54.0224
0.712	53.4217
0.706	52.7756
0.7	52.104
0.694	51.43
0.688	50.74
0.682	50.0576
0.676	49.3812
0.67	48.6991
0.664	48.0447
0.658	47.3873
0.652	46.7537
0.646	46.1161
0.64	45.5013
0.634	44.8705
0.628	44.1911
0.622	43.4703
0.616	42.6321
0.61	41.655
0.604	40.4604
0.598	39.0207
0.592	37.261
0.586	35.2049
0.58	32.8793
0.574	30.4661
0.568	28.0636
0.562	25.8818
0.556	23.996
0.55	22.5214
0.544	21.4053
0.538	20.5645
0.532	19.9288
0.526	19.4569
0.52	19.0766
0.514	18.7473
0.508	18.4533
0.502	18.1453
0.496	17.8276
0.49	17.5553
0.484	17.2675
0.478	17.0193
0.472	16.781
0.466	16.5288
0.46	16.2717
0.454	15.9992
0.448	15.7093
0.442	15.4051
0.436	15.1068
0.43	14.8121
0.424	14.56
0.418	14.3541
0.412	14.1723
0.406	13.9977
0.4	13.8283
