Name: Beryl Be_3Al_2Si_6O_18
Type: Mineral
Class: Silicates
Subclass: Cyclosilicates
Particle Size: 45-125um
Sample No.: CS-2A
Owner: JPL
Origin: Brazil, Minas Gerais.
Measurement: Hemispherical reflectance
X Units: Wavelength (micrometers)
Y Units: Reflectance (percent)
wavelength	value
2.5	44.2971
2.494	46.0785
2.488	47.8423
2.482	49.2749
2.476	50.5378
2.47	51.7733
2.464	53.0361
2.458	54.1055
2.452	55.243
2.446	56.3533
2.44	57.2032
2.434	58.1013
2.428	58.8081
2.422	59.4055
2.416	60.0578
2.41	60.5371
2.404	61.0255
2.398	61.4278
2.392	61.6984
2.386	61.8707
2.38	61.9257
2.374	62.1147
2.368	62.4404
2.362	62.7689
2.356	63.1026
2.35	63.3957
2.344	63.7093
2.338	63.9584
2.332	64.205
2.326	64.5797
2.32	65.0039
2.314	65.3395
2.308	65.6001
2.302	65.8887
2.296	66.0202
2.29	66.1457
2.284	66.2701
2.278	66.3932
2.272	66.5628
2.266	66.7005
2.26	66.7662
2.254	66.8108
2.248	66.9267
2.242	67.0706
2.236	67.0867
2.23	67.1605
2.224	67.1228
2.218	67.1158
2.212	67.1489
2.206	66.8968
2.2	66.6584
2.194	66.7504
2.188	67.1155
2.182	67.1339
2.176	67.2537
2.17	67.3487
2.164	67.297
2.158	66.899
2.152	66.5643
2.146	66.8753
2.14	67.4868
2.134	67.9557
2.128	68.0135
2.122	67.8429
2.116	67.6715
2.11	67.4793
2.104	67.2025
2.098	67.0884
2.092	66.9367
2.086	66.5946
2.08	66.3471
2.074	66.5749
2.068	66.69
2.062	66.5531
2.056	66.381
2.05	66.2434
2.044	66.8313
2.038	67.3683
2.032	67.5516
2.026	67.5311
2.02	67.529
2.014	67.3867
2.008	67.2962
2.002	67.0384
1.996	66.6511
1.99	65.9874
1.984	64.6619
1.978	62.7408
1.972	61.121
1.966	59.8787
1.96	59.2567
1.954	59.1065
1.948	59.4407
1.942	60.2573
1.936	60.7778
1.93	60.7897
1.924	60.3777
1.918	59.3243
1.912	57.0613
1.906	50.7021
1.9	34.4538
1.894	28.5656
1.888	45.7685
1.882	55.1718
1.876	58.122
1.87	59.3369
1.864	59.6143
1.858	58.8695
1.852	57.1956
1.846	55.1364
1.84	54.044
1.834	54.0835
1.828	55.1284
1.822	57.7789
1.816	61.8586
1.81	64.5216
1.804	66.1383
1.798	66.9611
1.792	67.3841
1.786	67.8843
1.78	68.322
1.774	68.6236
1.768	68.929
1.762	69.1307
1.756	69.2972
1.75	69.3939
1.744	69.5424
1.738	69.6364
1.732	69.5856
1.726	69.7255
1.72	69.7169
1.714	69.8178
1.708	69.7809
1.702	69.912
1.696	69.8382
1.69	69.852
1.684	69.866
1.678	69.8344
1.672	69.898
1.666	69.9135
1.66	69.9412
1.654	69.969
1.648	69.9409
1.642	70.0202
1.636	69.9367
1.63	69.9593
1.624	69.9684
1.618	69.9907
1.612	70.0195
1.606	70.0258
1.6	70.0074
1.594	70.001
1.588	69.9439
1.582	70.0026
1.576	69.9366
1.57	69.9309
1.564	69.9421
1.558	69.9734
1.552	69.9313
1.546	69.8689
1.54	69.8117
1.534	69.7696
1.528	69.7795
1.522	69.6935
1.516	69.5508
1.51	69.3965
1.504	69.3205
1.498	69.2659
1.492	69.2257
1.486	69.1818
1.48	68.9243
1.474	68.1613
1.468	63.228
1.462	66.9636
1.456	68.0296
1.45	67.8089
1.444	66.7009
1.438	65.6406
1.432	64.9012
1.426	64.7818
1.42	62.8451
1.414	61.7945
1.408	59.598
1.402	42.3466
1.396	56.9925
1.39	64.4849
1.384	65.2055
1.378	64.1944
1.372	62.9027
1.366	63.0346
1.36	64.7493
1.354	67.0862
1.348	68.1476
1.342	68.4702
1.336	68.6752
1.33	68.8335
1.324	69.0521
1.318	69.149
1.312	69.2242
1.306	69.2638
1.3	69.2298
1.294	69.2342
1.288	69.2097
1.282	69.2064
1.276	69.1306
1.27	69.1842
1.264	69.1108
1.258	69.1463
1.252	69.0887
1.246	69.0866
1.24	69.0706
1.234	69.0268
1.228	69.0846
1.222	68.9177
1.216	68.9079
1.21	68.9403
1.204	68.7397
1.198	68.7697
1.192	68.6578
1.186	68.6501
1.18	68.5312
1.174	68.354
1.168	68.332
1.162	68.2096
1.156	67.8659
1.15	63.2186
1.144	67.721
1.138	67.8987
1.132	67.5759
1.126	67.4206
1.12	67.7282
1.114	67.8499
1.108	67.8059
1.102	67.6444
1.096	67.5996
1.09	67.4431
1.084	67.3404
1.078	67.3063
1.072	67.2101
1.066	66.9812
1.06	66.747
1.054	66.6535
1.048	66.4923
1.042	66.4418
1.036	66.2583
1.03	66.0734
1.024	65.9855
1.018	65.7754
1.012	65.6784
1.006	65.4656
1	65.3059
0.994	65.1571
0.988	65.0665
0.982	64.74
0.976	64.5126
0.97	64.3691
0.964	64.0801
0.958	62.879
0.952	63.486
0.946	63.394
0.94	63.0001
0.934	62.8409
0.928	62.3812
0.922	61.994
0.916	61.5247
0.91	61.1035
0.904	60.559
0.898	60.0255
0.892	59.438
0.886	58.8715
0.88	58.2678
0.874	57.7586
0.868	57.2608
0.862	56.6586
0.856	56.3205
0.85	55.868
0.844	55.5565
0.838	55.3037
0.832	55.1005
0.826	55.028
0.82	54.9147
0.814	54.791
0.808	55.1642
0.802	55.4117
0.796	55.6444
0.79	56.018
0.784	56.4058
0.778	56.8684
0.772	57.3347
0.766	57.8788
0.76	58.4826
0.754	59.0915
0.748	59.7297
0.742	60.3311
0.736	60.9237
0.73	61.5738
0.724	62.1835
0.718	62.7653
0.712	63.3151
0.706	63.7842
0.7	64.2645
0.694	64.6461
0.688	65.0096
0.682	65.3129
0.676	65.5763
0.67	65.8216
0.664	66.0024
0.658	66.2048
0.652	66.3774
0.646	66.4901
0.64	66.6465
0.634	66.7571
0.628	66.8689
0.622	66.9761
0.616	67.0546
0.61	67.1518
0.604	67.2315
0.598	67.3294
0.592	67.4579
0.586	67.5224
0.58	67.585
0.574	67.6478
0.568	67.7225
0.562	67.7932
0.556	67.8376
0.55	67.9171
0.544	67.9709
0.538	67.9849
0.532	68.0387
0.526	68.073
0.52	68.1068
0.514	68.1226
0.508	68.1186
0.502	68.0965
0.496	68.0516
0.49	67.9963
0.484	67.9379
0.478	67.9224
0.472	67.8947
0.466	67.7924
0.46	67.6824
0.454	67.5568
0.448	67.4225
0.442	67.1963
0.436	66.9464
0.43	66.4299
0.424	66.1451
0.418	66.2394
0.412	66.1237
0.406	65.9599
0.4	65.7545
