Name: Siderite Fe^2+CO_3
Type: Mineral
Class: Carbonates
Particle Size: 125-500um
Sample No.: C-9A
Owner: JPL
Origin: None.
Measurement: Hemispherical reflectance
X Units: Wavelength (micrometers)
Y Units: Reflectance (percent)
wavelength	value
2.5	33.7068
2.494	34.1016
2.488	34.9735
2.482	35.9908
2.476	37.158
2.47	38.3039
2.464	39.6574
2.458	41.0501
2.452	42.403
2.446	43.5915
2.44	44.7153
2.434	45.7887
2.428	46.5568
2.422	47.4288
2.416	47.966
2.41	48.3937
2.404	48.6112
2.398	48.7644
2.392	48.6952
2.386	48.3715
2.38	47.9587
2.374	47.2704
2.368	46.4274
2.362	45.5435
2.356	44.6187
2.35	43.8766
2.344	43.2687
2.338	42.9329
2.332	42.7722
2.326	42.8598
2.32	43.2069
2.314	43.6138
2.308	44.113
2.302	44.7772
2.296	45.4178
2.29	46.1207
2.284	46.9061
2.278	47.7255
2.272	48.5597
2.266	49.4496
2.26	50.3656
2.254	51.1843
2.248	51.9731
2.242	52.8688
2.236	53.628
2.23	54.3466
2.224	55.0063
2.218	55.633
2.212	56.2958
2.206	56.7826
2.2	57.3071
2.194	57.6007
2.188	57.879
2.182	58.0491
2.176	58.3733
2.17	58.5216
2.164	58.6122
2.158	58.8495
2.152	59.0538
2.146	59.335
2.14	59.6563
2.134	59.8144
2.128	59.9325
2.122	59.9948
2.116	59.9972
2.11	59.9701
2.104	59.8948
2.098	59.8929
2.092	60.002
2.086	60.157
2.08	60.2219
2.074	60.2754
2.068	60.2904
2.062	60.3635
2.056	60.3862
2.05	60.3341
2.044	60.3394
2.038	60.2177
2.032	60.0259
2.026	59.7596
2.02	59.4354
2.014	59.0991
2.008	58.7857
2.002	58.6302
1.996	58.4744
1.99	58.3713
1.984	58.3476
1.978	58.1901
1.972	58.1129
1.966	58.0344
1.96	57.9431
1.954	57.9131
1.948	57.9087
1.942	57.7768
1.936	57.7872
1.93	57.8186
1.924	57.8378
1.918	58.0506
1.912	58.2479
1.906	58.5058
1.9	58.94
1.894	59.3062
1.888	59.7652
1.882	60.0792
1.876	60.3051
1.87	60.4148
1.864	60.733
1.858	60.858
1.852	60.9001
1.846	60.9853
1.84	61.0876
1.834	61.1478
1.828	61.1576
1.822	61.2001
1.816	61.1216
1.81	61.0713
1.804	61.013
1.798	60.9219
1.792	60.7516
1.786	60.5546
1.78	60.3303
1.774	60.1269
1.768	59.941
1.762	59.7116
1.756	59.428
1.75	59.185
1.744	58.8736
1.738	58.6268
1.732	58.2247
1.726	57.9568
1.72	57.5195
1.714	57.1602
1.708	56.6805
1.702	56.1073
1.696	55.6264
1.69	55.0559
1.684	54.498
1.678	53.8146
1.672	53.2127
1.666	52.5472
1.66	51.839
1.654	51.0489
1.648	50.2888
1.642	49.4427
1.636	48.5976
1.63	47.6779
1.624	46.7439
1.618	45.8025
1.612	44.754
1.606	43.7769
1.6	42.673
1.594	41.6602
1.588	40.5129
1.582	39.3682
1.576	38.2677
1.57	37.0946
1.564	35.9688
1.558	34.8834
1.552	33.7121
1.546	32.6004
1.54	31.5124
1.534	30.3858
1.528	29.2565
1.522	28.2278
1.516	27.1422
1.51	26.1868
1.504	25.1981
1.498	24.1876
1.492	23.3483
1.486	22.3238
1.48	21.493
1.474	20.7186
1.468	19.8974
1.462	19.1483
1.456	18.3556
1.45	17.6427
1.444	16.9955
1.438	16.3994
1.432	15.8071
1.426	15.2817
1.42	14.7587
1.414	14.1433
1.408	13.8344
1.402	13.4882
1.396	13.0269
1.39	12.7382
1.384	12.2949
1.378	12.1216
1.372	11.7426
1.366	11.4752
1.36	11.1883
1.354	11.0219
1.348	10.7287
1.342	10.4599
1.336	10.3936
1.33	10.2246
1.324	10.0861
1.318	9.93754
1.312	9.83623
1.306	9.69874
1.3	9.61045
1.294	9.45829
1.288	9.40048
1.282	9.32033
1.276	9.25717
1.27	9.25338
1.264	9.18113
1.258	9.16192
1.252	9.10383
1.246	9.11601
1.24	9.05032
1.234	9.01896
1.228	8.97553
1.222	9.00178
1.216	8.98875
1.21	8.98847
1.204	9.00246
1.198	8.98141
1.192	9.04791
1.186	8.99849
1.18	8.99818
1.174	8.96844
1.168	8.97274
1.162	8.98873
1.156	8.97852
1.15	8.92756
1.144	8.98258
1.138	8.93165
1.132	8.95001
1.126	8.92651
1.12	8.87998
1.114	8.89372
1.108	8.93864
1.102	8.90679
1.096	8.8071
1.09	8.81838
1.084	8.79041
1.078	8.73271
1.072	8.66489
1.066	8.72699
1.06	8.77041
1.054	8.66667
1.048	8.74251
1.042	8.76369
1.036	8.77347
1.03	8.7797
1.024	8.81126
1.018	8.93411
1.012	8.88372
1.006	8.97476
1	8.98425
0.994	9.14319
0.988	9.27988
0.982	9.36249
0.976	9.44425
0.97	9.62511
0.964	9.80426
0.958	9.97534
0.952	10.2163
0.946	10.4455
0.94	10.7595
0.934	11.0597
0.928	11.4078
0.922	11.8178
0.916	12.1539
0.91	12.6321
0.904	13.1047
0.898	13.6173
0.892	14.2011
0.886	14.7403
0.88	15.4761
0.874	16.1825
0.868	16.9813
0.862	17.93
0.856	19.7361
0.85	20.7483
0.844	21.8655
0.838	23.0397
0.832	24.3265
0.826	25.6606
0.82	27.0283
0.814	28.4718
0.808	29.9505
0.802	31.4962
0.796	33.0017
0.79	34.5234
0.784	36.0452
0.778	37.5112
0.772	38.9482
0.766	40.3455
0.76	41.6396
0.754	42.8567
0.748	43.9275
0.742	44.8829
0.736	45.6774
0.73	46.2769
0.724	46.719
0.718	46.9731
0.712	47.0545
0.706	46.9169
0.7	46.5578
0.694	46.0205
0.688	45.2645
0.682	44.3401
0.676	43.3069
0.67	42.2251
0.664	41.1604
0.658	40.1689
0.652	39.2453
0.646	38.443
0.64	37.734
0.634	37.1236
0.628	36.5834
0.622	36.1099
0.616	35.6848
0.61	35.3042
0.604	34.9147
0.598	34.4846
0.592	33.9681
0.586	33.3519
0.58	32.6181
0.574	31.8225
0.568	30.8817
0.562	29.8449
0.556	28.6785
0.55	27.4363
0.544	26.0668
0.538	24.607
0.532	23.1653
0.526	21.8695
0.52	20.7815
0.514	20.0294
0.508	19.4986
0.502	19.1344
0.496	18.6195
0.49	17.5042
0.484	16.574
0.478	16.3222
0.472	16.0029
0.466	15.5465
0.46	15.2319
0.454	14.7065
0.448	14.2181
0.442	13.8869
0.436	13.6601
0.43	13.3389
0.424	12.9228
0.418	12.4884
0.412	11.934
0.406	11.2396
0.4	10.3374
