Name: Enstatite Mg_2(SiO_3)_2
Type: Mineral
Class: Silicates
Subclass: Inosilicates
Particle Size: 45-125um
Sample No.: IN-10B
Owner: JPL
Origin: Norway, Telemark.
Measurement: Hemispherical reflectance
X Units: Wavelength (micrometers)
Y Units: Reflectance (percent)
wavelength	value
2.5	36.5812
2.494	36.319
2.488	36.1137
2.482	36.0109
2.476	35.9739
2.47	35.8173
2.464	35.7742
2.458	35.6361
2.452	35.5486
2.446	35.4966
2.44	35.5688
2.434	35.4211
2.428	35.3606
2.422	35.2429
2.416	35.0942
2.41	34.9478
2.404	34.8055
2.398	34.5711
2.392	34.3233
2.386	34.1552
2.38	34.1382
2.374	34.2767
2.368	34.3624
2.362	34.4645
2.356	34.3747
2.35	34.3465
2.344	34.2511
2.338	34.02
2.332	33.7256
2.326	33.2962
2.32	32.7512
2.314	32.1994
2.308	31.9253
2.302	31.84
2.296	31.9064
2.29	32.0451
2.284	32.1151
2.278	32.279
2.272	32.2661
2.266	32.2353
2.26	32.0803
2.254	32.0487
2.248	31.8718
2.242	31.7457
2.236	31.4863
2.23	31.2764
2.224	31.0837
2.218	30.8568
2.212	30.726
2.206	30.5093
2.2	30.1772
2.194	29.9465
2.188	29.6714
2.182	29.345
2.176	29.0615
2.17	28.7739
2.164	28.553
2.158	28.2068
2.152	27.9083
2.146	27.5775
2.14	27.12
2.134	26.7676
2.128	26.4285
2.122	25.928
2.116	25.5899
2.11	25.1513
2.104	24.6909
2.098	24.3156
2.092	23.9654
2.086	23.6223
2.08	23.3441
2.074	23.014
2.068	22.7168
2.062	22.3995
2.056	22.0572
2.05	21.7601
2.044	21.4771
2.038	21.1852
2.032	20.9252
2.026	20.6159
2.02	20.3307
2.014	20.0851
2.008	19.8134
2.002	19.5254
1.996	19.3158
1.99	19.0974
1.984	18.7934
1.978	18.6595
1.972	18.4017
1.966	18.1869
1.96	18.001
1.954	17.8044
1.948	17.673
1.942	17.5508
1.936	17.4103
1.93	17.188
1.924	16.9986
1.918	17.044
1.912	16.9728
1.906	16.9654
1.9	16.8903
1.894	16.9249
1.888	16.9313
1.882	16.893
1.876	16.8847
1.87	16.8788
1.864	16.9006
1.858	16.9061
1.852	16.9899
1.846	16.9957
1.84	16.9847
1.834	17.1026
1.828	17.1077
1.822	17.2315
1.816	17.2661
1.81	17.4098
1.804	17.5299
1.798	17.5999
1.792	17.7322
1.786	17.9052
1.78	17.9807
1.774	18.1119
1.768	18.3046
1.762	18.4804
1.756	18.6754
1.75	18.8729
1.744	19.0928
1.738	19.2631
1.732	19.5381
1.726	19.7594
1.72	19.9992
1.714	20.2716
1.708	20.5243
1.702	20.7959
1.696	21.0868
1.69	21.4339
1.684	21.8028
1.678	22.0345
1.672	22.4056
1.666	22.6847
1.66	23.1798
1.654	23.5701
1.648	23.932
1.642	24.3496
1.636	24.6467
1.63	25.0779
1.624	25.5274
1.618	25.9169
1.612	26.4073
1.606	26.7718
1.6	27.2785
1.594	27.6848
1.588	28.1787
1.582	28.7079
1.576	29.1277
1.57	29.6956
1.564	30.1704
1.558	30.6728
1.552	31.1978
1.546	31.6914
1.54	32.2228
1.534	32.748
1.528	33.2718
1.522	33.8038
1.516	34.342
1.51	34.8055
1.504	35.4302
1.498	35.8745
1.492	36.3884
1.486	36.8853
1.48	37.4043
1.474	37.8913
1.468	38.3512
1.462	38.83
1.456	39.322
1.45	39.7569
1.444	40.2277
1.438	40.6327
1.432	41.036
1.426	41.3737
1.42	41.7597
1.414	42.1556
1.408	42.4501
1.402	42.5061
1.396	40.6345
1.39	42.86
1.384	43.833
1.378	44.387
1.372	44.6243
1.366	44.8815
1.36	45.0718
1.354	45.3197
1.348	45.4941
1.342	45.7636
1.336	45.909
1.33	46.0721
1.324	46.2105
1.318	46.3396
1.312	46.4373
1.306	46.5761
1.3	46.6831
1.294	46.6965
1.288	46.7921
1.282	46.8238
1.276	46.847
1.27	46.8666
1.264	46.9738
1.258	46.9402
1.252	46.9898
1.246	46.9231
1.24	46.8808
1.234	46.895
1.228	46.8531
1.222	46.813
1.216	46.7523
1.21	46.7161
1.204	46.6887
1.198	46.539
1.192	46.4734
1.186	46.4292
1.18	46.3876
1.174	46.2381
1.168	46.1665
1.162	46.0271
1.156	45.8291
1.15	45.7529
1.144	45.5378
1.138	45.2696
1.132	45.0608
1.126	44.6154
1.12	44.3285
1.114	43.8715
1.108	43.3157
1.102	42.7104
1.096	41.9593
1.09	41.1889
1.084	40.1696
1.078	39.0603
1.072	37.7915
1.066	36.3907
1.06	34.8906
1.054	33.3275
1.048	31.5543
1.042	29.8114
1.036	27.927
1.03	26.0999
1.024	24.2161
1.018	22.4063
1.012	20.7646
1.006	19.1037
1	17.623
0.994	16.2234
0.988	14.9252
0.982	13.8204
0.976	12.8126
0.97	12.0824
0.964	11.3313
0.958	10.7134
0.952	10.2115
0.946	9.80473
0.94	9.53986
0.934	9.2106
0.928	9.04057
0.922	8.90413
0.916	8.90352
0.91	8.80877
0.904	8.90988
0.898	9.01365
0.892	9.10486
0.886	9.27435
0.88	9.55307
0.874	9.94799
0.868	10.2914
0.862	10.7685
0.856	11.8404
0.85	12.5691
0.844	13.3899
0.838	14.298
0.832	15.3833
0.826	16.5839
0.82	17.9114
0.814	19.4096
0.808	20.9873
0.802	22.711
0.796	24.5138
0.79	26.3906
0.784	28.3075
0.778	30.2255
0.772	32.0897
0.766	33.8953
0.76	35.5525
0.754	37.1129
0.748	38.4682
0.742	39.6593
0.736	40.6858
0.73	41.5101
0.724	42.1963
0.718	42.7058
0.712	43.0895
0.706	43.3294
0.7	43.4816
0.694	43.5547
0.688	43.5608
0.682	43.533
0.676	43.4526
0.67	43.3502
0.664	43.2312
0.658	43.0954
0.652	42.9625
0.646	42.812
0.64	42.6666
0.634	42.5002
0.628	42.3336
0.622	42.1344
0.616	41.9461
0.61	41.7808
0.604	41.6316
0.598	41.4975
0.592	41.3412
0.586	41.1154
0.58	40.8932
0.574	40.6604
0.568	40.4074
0.562	40.0899
0.556	39.5326
0.55	38.756
0.544	38.6621
0.538	39.0576
0.532	39.174
0.526	39.0329
0.52	38.7644
0.514	38.3364
0.508	36.8387
0.502	36.4508
0.496	36.8521
0.49	36.3918
0.484	35.7173
0.478	35.1993
0.472	34.782
0.466	34.4034
0.46	34.054
0.454	33.5599
0.448	33.1823
0.442	32.921
0.436	32.5298
0.43	31.3929
0.424	30.7215
0.418	30.6378
0.412	29.8778
0.406	28.8627
0.4	27.7
