Name: Scorodite Fe^3+AsO_4.2H_2O
Type: Mineral
Class: Arsenates
Particle Size: 125-500um
Sample No.: A-2A
Owner: JPL
Origin: USA, Utah, Tooele County, Gold Hill.
Measurement: Hemispherical reflectance
X Units: Wavelength (micrometers)
Y Units: Reflectance (percent)
wavelength	value
2.5	2.95169
2.494	3.39055
2.488	3.82761
2.482	4.01979
2.476	4.29742
2.47	4.6629
2.464	4.92702
2.458	5.18683
2.452	5.36481
2.446	5.47815
2.44	5.86943
2.434	5.9044
2.428	6.1395
2.422	6.33894
2.416	6.60624
2.41	6.73034
2.404	6.96979
2.398	7.19455
2.392	7.39818
2.386	7.54742
2.38	7.78095
2.374	7.91886
2.368	8.09097
2.362	8.15304
2.356	8.16154
2.35	8.17145
2.344	8.13025
2.338	8.05655
2.332	8.01491
2.326	8.02597
2.32	8.25515
2.314	8.48018
2.308	8.82921
2.302	9.2408
2.296	9.54281
2.29	9.83606
2.284	10.0234
2.278	10.1534
2.272	10.2056
2.266	10.163
2.26	10.1935
2.254	10.2508
2.248	10.1981
2.242	10.1895
2.236	10.0842
2.23	9.8781
2.224	9.71664
2.218	9.57724
2.212	9.44071
2.206	9.2426
2.2	9.13971
2.194	8.97843
2.188	8.79749
2.182	8.73563
2.176	8.54917
2.17	8.42376
2.164	8.39924
2.158	8.24599
2.152	8.12791
2.146	8.0618
2.14	7.98538
2.134	7.86416
2.128	7.69695
2.122	7.56508
2.116	7.55475
2.11	7.36618
2.104	7.38559
2.098	7.32461
2.092	7.35136
2.086	7.37625
2.08	7.38631
2.074	7.39746
2.068	7.41696
2.062	7.45568
2.056	7.51586
2.05	7.50684
2.044	7.6664
2.038	7.61064
2.032	7.59939
2.026	7.58554
2.02	7.42588
2.014	7.19263
2.008	6.87343
2.002	6.53643
1.996	6.38411
1.99	6.41701
1.984	6.45046
1.978	6.31898
1.972	6.15412
1.966	5.95578
1.96	6.02026
1.954	6.29758
1.948	6.91387
1.942	7.73306
1.936	8.39783
1.93	9.065
1.924	9.79495
1.918	10.3769
1.912	10.9201
1.906	11.4317
1.9	11.7233
1.894	12.1164
1.888	12.2957
1.882	12.4492
1.876	12.5558
1.87	12.631
1.864	12.7439
1.858	12.8077
1.852	12.8252
1.846	12.8178
1.84	12.889
1.834	12.866
1.828	12.8923
1.822	12.9696
1.816	13.0761
1.81	13.1552
1.804	13.1842
1.798	13.2622
1.792	13.3875
1.786	13.4826
1.78	13.5243
1.774	13.6394
1.768	13.7296
1.762	13.9124
1.756	14.0007
1.75	14.1916
1.744	14.424
1.738	14.5011
1.732	14.6693
1.726	14.8071
1.72	14.9973
1.714	15.2029
1.708	15.4268
1.702	15.7162
1.696	16.0438
1.69	16.464
1.684	16.8382
1.678	17.1929
1.672	17.7252
1.666	18.2137
1.66	18.7418
1.654	19.3545
1.648	20.0371
1.642	20.5875
1.636	21.1611
1.63	21.8189
1.624	22.4883
1.618	23.1317
1.612	23.9327
1.606	24.5605
1.6	25.3396
1.594	26.0202
1.588	26.794
1.582	27.6249
1.576	28.3502
1.57	29.1423
1.564	29.8284
1.558	30.3801
1.552	30.7215
1.546	30.5263
1.54	30.0119
1.534	29.5149
1.528	29.7932
1.522	30.5777
1.516	31.4286
1.51	31.9219
1.504	32.1546
1.498	32.204
1.492	31.9094
1.486	31.3037
1.48	30.3883
1.474	29.0341
1.468	26.6975
1.462	24.2023
1.456	23.5673
1.45	25.2205
1.444	28.3126
1.438	32.0482
1.432	35.4678
1.426	38.0179
1.42	40.2757
1.414	42.2839
1.408	43.9639
1.402	45.3232
1.396	46.3123
1.39	47.0271
1.384	47.3002
1.378	47.4547
1.372	47.6193
1.366	47.9894
1.36	48.5747
1.354	49.0243
1.348	49.262
1.342	49.4132
1.336	49.4846
1.33	49.5182
1.324	49.5601
1.318	49.5038
1.312	49.4938
1.306	49.4841
1.3	49.647
1.294	49.7793
1.288	49.8372
1.282	49.7881
1.276	49.8076
1.27	49.7665
1.264	49.705
1.258	49.5631
1.252	49.4113
1.246	49.236
1.24	49.0477
1.234	48.9426
1.228	48.7083
1.222	48.4234
1.216	48.1672
1.21	47.7375
1.204	47.3874
1.198	46.9817
1.192	46.7485
1.186	46.7745
1.18	46.8645
1.174	46.9684
1.168	47.0135
1.162	46.9363
1.156	46.845
1.15	46.7904
1.144	46.5345
1.138	46.3901
1.132	46.3229
1.126	46.0115
1.12	45.9257
1.114	45.7265
1.108	45.536
1.102	45.471
1.096	45.2848
1.09	45.058
1.084	44.8694
1.078	44.8318
1.072	44.6475
1.066	44.4558
1.06	44.2411
1.054	44.0642
1.048	43.9052
1.042	43.6386
1.036	43.4141
1.03	43.0846
1.024	42.8601
1.018	42.5414
1.012	42.1462
1.006	41.7239
1	41.3004
0.994	40.8696
0.988	40.804
0.982	40.7505
0.976	40.5713
0.97	40.3979
0.964	40.0975
0.958	39.8037
0.952	39.437
0.946	39.0554
0.94	38.6381
0.934	38.2174
0.928	37.8438
0.922	37.3732
0.916	37.0091
0.91	36.5607
0.904	36.1565
0.898	35.8103
0.892	35.3947
0.886	35.0142
0.88	34.6952
0.874	34.347
0.868	34.0428
0.862	33.7295
0.856	33.7345
0.85	33.4832
0.844	33.164
0.838	33.017
0.832	32.8839
0.826	32.7659
0.82	32.6665
0.814	32.5714
0.808	32.5621
0.802	32.6032
0.796	32.6899
0.79	32.7833
0.784	32.9752
0.778	33.1314
0.772	33.3419
0.766	33.6271
0.76	33.8794
0.754	34.1379
0.748	34.4399
0.742	34.6956
0.736	34.9119
0.73	35.0672
0.724	35.1863
0.718	35.2249
0.712	35.1632
0.706	35.029
0.7	34.7807
0.694	34.4204
0.688	33.9146
0.682	33.3451
0.676	32.6108
0.67	31.7736
0.664	30.8672
0.658	29.9127
0.652	28.9308
0.646	27.9497
0.64	26.9945
0.634	26.0865
0.628	25.2486
0.622	24.452
0.616	23.7706
0.61	23.1595
0.604	22.6376
0.598	22.2107
0.592	21.8409
0.586	21.5277
0.58	21.2857
0.574	21.0757
0.568	20.9096
0.562	20.8012
0.556	20.7117
0.55	20.6832
0.544	20.6363
0.538	20.5907
0.532	20.4979
0.526	20.3364
0.52	20.0587
0.514	19.6439
0.508	19.0322
0.502	18.2132
0.496	17.2115
0.49	16.0622
0.484	14.9325
0.478	14.0318
0.472	13.3683
0.466	12.8908
0.46	12.5257
0.454	12.1704
0.448	11.5558
0.442	10.3671
0.436	8.46613
0.43	8.54914
0.424	8.76601
0.418	9.00216
0.412	9.02004
0.406	8.90872
0.4	8.64998
