Name: Dolomite CaMg(CO_3)_2
Type: Mineral
Class: Carbonates
Particle Size: 125-500um
Sample No.: C-5C
Owner: JPL
Origin: USA, California, Los Angeles County, Palos Verdes.
Measurement: Hemispherical reflectance
X Units: Wavelength (micrometers)
Y Units: Reflectance (percent)
wavelength	value
2.5	26.1086
2.494	27.3467
2.488	29.0436
2.482	30.7468
2.476	32.346
2.47	33.3537
2.464	34.1608
2.458	35.2358
2.452	36.8812
2.446	39.1851
2.44	42.0614
2.434	45.0149
2.428	48.131
2.422	50.9985
2.416	53.8216
2.41	56.0179
2.404	57.7461
2.398	59.073
2.392	60.45
2.386	61.7764
2.38	62.9369
2.374	63.8892
2.368	64.5091
2.362	63.9885
2.356	61.952
2.35	58.206
2.344	53.0774
2.338	47.5058
2.332	42.7615
2.326	39.7193
2.32	38.2711
2.314	38.3293
2.308	39.1269
2.302	40.3396
2.296	41.7763
2.29	43.1036
2.284	44.3025
2.278	45.3038
2.272	46.1959
2.266	47.4419
2.26	49.5204
2.254	52.1309
2.248	54.9915
2.242	57.7038
2.236	60.1126
2.23	62.1098
2.224	63.7396
2.218	65.1831
2.212	66.6996
2.206	68.3059
2.2	69.9097
2.194	71.1734
2.188	72.4002
2.182	73.3176
2.176	73.9012
2.17	74.2968
2.164	74.2434
2.158	73.9311
2.152	73.3704
2.146	72.6828
2.14	72.3443
2.134	72.6034
2.128	73.1615
2.122	73.8606
2.116	74.5793
2.11	75.0435
2.104	75.3321
2.098	75.6706
2.092	76.0206
2.086	76.5169
2.08	77.0252
2.074	77.3982
2.068	77.7643
2.062	77.9931
2.056	78.1487
2.05	78.3027
2.044	78.2968
2.038	78.3776
2.032	78.2521
2.026	78.0609
2.02	77.7911
2.014	77.6143
2.008	76.9379
2.002	76.054
1.996	74.7391
1.99	73.0086
1.984	71.955
1.978	71.8755
1.972	72.3352
1.966	73.0634
1.96	73.7512
1.954	74.3168
1.948	74.6248
1.942	74.9275
1.936	75.5217
1.93	76.3027
1.924	77.1294
1.918	77.9069
1.912	78.648
1.906	79.3896
1.9	80.1859
1.894	81.1366
1.888	81.6986
1.882	81.5643
1.876	80.8631
1.87	78.4162
1.864	76.5196
1.858	76.4494
1.852	77.5638
1.846	78.7786
1.84	79.8344
1.834	80.6069
1.828	81.2148
1.822	81.6429
1.816	82.3298
1.81	83.0547
1.804	83.6516
1.798	84.1163
1.792	84.5743
1.786	84.8287
1.78	85.0797
1.774	85.2435
1.768	85.3272
1.762	85.3438
1.756	85.0459
1.75	84.5921
1.744	84.3783
1.738	84.358
1.732	84.5163
1.726	84.5508
1.72	84.6665
1.714	84.6972
1.708	84.8714
1.702	85.0428
1.696	85.2766
1.69	85.4318
1.684	85.6749
1.678	85.8834
1.672	86.0515
1.666	86.2029
1.66	86.3452
1.654	86.3765
1.648	86.3693
1.642	86.3512
1.636	86.3863
1.63	86.4289
1.624	86.6644
1.618	86.6043
1.612	86.7583
1.606	86.7273
1.6	86.8838
1.594	86.8326
1.588	86.8591
1.582	86.9418
1.576	86.8835
1.57	86.7856
1.564	86.683
1.558	86.4707
1.552	86.4342
1.546	86.4307
1.54	86.582
1.534	86.4998
1.528	86.5106
1.522	86.5444
1.516	86.5269
1.51	86.4702
1.504	86.4045
1.498	86.3738
1.492	86.3105
1.486	86.234
1.48	86.2097
1.474	86.1259
1.468	86.0837
1.462	86.0734
1.456	86.1777
1.45	86.1677
1.444	86.1704
1.438	86.272
1.432	86.3829
1.426	86.516
1.42	86.638
1.414	86.818
1.408	86.9133
1.402	87.1144
1.396	87.3501
1.39	87.5464
1.384	87.6425
1.378	87.7555
1.372	87.7878
1.366	87.8233
1.36	87.8147
1.354	87.6868
1.348	87.7895
1.342	87.7737
1.336	87.7762
1.33	87.821
1.324	87.8743
1.318	87.8152
1.312	87.7907
1.306	87.7887
1.3	87.7951
1.294	87.7279
1.288	87.6982
1.282	87.735
1.276	87.6901
1.27	87.7347
1.264	87.6681
1.258	87.7239
1.252	87.6047
1.246	87.6427
1.24	87.6296
1.234	87.5915
1.228	87.5754
1.222	87.5342
1.216	87.5532
1.21	87.5366
1.204	87.4996
1.198	87.4753
1.192	87.4729
1.186	87.4694
1.18	87.4166
1.174	87.4932
1.168	87.3988
1.162	87.4354
1.156	87.4722
1.15	87.369
1.144	87.3884
1.138	87.4323
1.132	87.3219
1.126	87.3579
1.12	87.315
1.114	87.3003
1.108	87.2867
1.102	87.3269
1.096	87.2115
1.09	87.3048
1.084	87.2314
1.078	87.2535
1.072	87.1136
1.066	87.1365
1.06	87.1563
1.054	87.1422
1.048	87.1043
1.042	87.0328
1.036	86.9663
1.03	86.9755
1.024	86.9746
1.018	86.9179
1.012	86.8584
1.006	86.9127
1	86.8252
0.994	86.7608
0.988	86.7853
0.982	86.7158
0.976	86.6042
0.97	86.6045
0.964	86.6793
0.958	86.6017
0.952	86.5227
0.946	86.4676
0.94	86.4005
0.934	86.2922
0.928	86.296
0.922	86.1772
0.916	86.2068
0.91	86.1748
0.904	86.0573
0.898	86.0104
0.892	85.9666
0.886	85.7936
0.88	85.8176
0.874	85.7469
0.868	85.6581
0.862	85.6294
0.856	85.842
0.85	85.8737
0.844	85.7114
0.838	85.5731
0.832	85.5722
0.826	85.592
0.82	85.6962
0.814	85.4642
0.808	85.4476
0.802	85.3923
0.796	85.3913
0.79	85.3341
0.784	85.2702
0.778	85.2423
0.772	85.1253
0.766	85.0923
0.76	85.0488
0.754	85.0269
0.748	84.9783
0.742	84.9106
0.736	84.8303
0.73	84.7374
0.724	84.677
0.718	84.6069
0.712	84.5055
0.706	84.4414
0.7	84.2812
0.694	84.1845
0.688	84.0776
0.682	84.0006
0.676	83.8699
0.67	83.7626
0.664	83.6288
0.658	83.4563
0.652	83.3032
0.646	83.1045
0.64	82.8901
0.634	82.7033
0.628	82.4784
0.622	82.2604
0.616	81.9852
0.61	81.7324
0.604	81.4854
0.598	81.2455
0.592	81.0641
0.586	80.8166
0.58	80.5668
0.574	80.3367
0.568	80.0812
0.562	79.784
0.556	79.4894
0.55	79.1818
0.544	78.874
0.538	78.5774
0.532	78.2193
0.526	77.8664
0.52	77.4987
0.514	77.1328
0.508	76.7136
0.502	76.2922
0.496	75.8543
0.49	75.4274
0.484	74.9532
0.478	74.4753
0.472	74.0037
0.466	73.485
0.46	72.9619
0.454	72.3203
0.448	71.637
0.442	70.8634
0.436	70.0776
0.43	69.1583
0.424	68.1766
0.418	67.1149
0.412	65.9197
0.406	64.6397
0.4	63.2868
