Name: Montebrasite LiAlPO_4(OH)
Type: Mineral
Class: Phosphates
Particle Size: 0-45um
Sample No.: P-2A
Owner: JPL
Origin: USA, Couth Dakota, Custer County, Custer.
Measurement: Hemispherical reflectance
X Units: Wavelength (micrometers)
Y Units: Reflectance (percent)
wavelength	value
2.5	49.6459
2.494	49.8448
2.488	50.197
2.482	50.612
2.476	51.2254
2.47	51.9132
2.464	52.4346
2.458	53.1827
2.452	53.8033
2.446	54.3681
2.44	54.8139
2.434	55.096
2.428	55.4177
2.422	55.423
2.416	55.5663
2.41	55.2441
2.404	54.7491
2.398	53.6392
2.392	51.6995
2.386	48.9775
2.38	46.0545
2.374	44.574
2.368	45.484
2.362	48.5407
2.356	52.1267
2.35	54.871
2.344	56.5923
2.338	57.385
2.332	57.675
2.326	57.7792
2.32	57.8471
2.314	57.8
2.308	57.6831
2.302	57.4737
2.296	57.2249
2.29	56.8698
2.284	56.4199
2.278	56.0684
2.272	55.8238
2.266	55.6669
2.26	55.4855
2.254	55.1302
2.248	54.7496
2.242	54.2777
2.236	53.6665
2.23	53.0534
2.224	52.4468
2.218	51.814
2.212	50.9398
2.206	49.6423
2.2	47.823
2.194	46.0245
2.188	44.332
2.182	42.9799
2.176	41.9958
2.17	42.739
2.164	46.5666
2.158	51.797
2.152	55.4759
2.146	57.0971
2.14	57.8758
2.134	58.0855
2.128	58.2388
2.122	58.198
2.116	58.0708
2.11	57.9531
2.104	57.9382
2.098	57.9967
2.092	58.0939
2.086	58.1482
2.08	58.0672
2.074	58.062
2.068	58.1114
2.062	58.1888
2.056	58.3001
2.05	58.4202
2.044	58.5765
2.038	58.7144
2.032	58.9239
2.026	58.871
2.02	58.7924
2.014	58.4752
2.008	57.7672
2.002	56.5422
1.996	55.7691
1.99	56.4747
1.984	57.6997
1.978	58.534
1.972	58.8703
1.966	59.1974
1.96	59.2245
1.954	59.301
1.948	59.4216
1.942	59.4945
1.936	59.4616
1.93	59.5106
1.924	59.5611
1.918	59.6428
1.912	59.6759
1.906	59.7518
1.9	59.8119
1.894	59.801
1.888	59.8653
1.882	59.8986
1.876	59.8732
1.87	60.0324
1.864	59.8144
1.858	59.6478
1.852	59.4589
1.846	59.6036
1.84	59.8968
1.834	60.3061
1.828	60.4919
1.822	60.5806
1.816	60.6186
1.81	60.5962
1.804	60.6162
1.798	60.5917
1.792	60.568
1.786	60.5234
1.78	60.471
1.774	60.4256
1.768	60.4549
1.762	60.4726
1.756	60.4922
1.75	60.5661
1.744	60.5819
1.738	60.5848
1.732	60.6807
1.726	60.7363
1.72	60.7482
1.714	60.8173
1.708	60.869
1.702	60.8371
1.696	60.8976
1.69	60.8718
1.684	60.8663
1.678	60.8794
1.672	60.8504
1.666	60.8198
1.66	60.8419
1.654	60.8191
1.648	60.7853
1.642	60.8938
1.636	60.819
1.63	60.8794
1.624	60.7767
1.618	60.8878
1.612	60.7677
1.606	60.8772
1.6	60.8226
1.594	60.7489
1.588	60.768
1.582	60.735
1.576	60.704
1.57	60.6432
1.564	60.5655
1.558	60.4185
1.552	60.2536
1.546	59.9933
1.54	59.8644
1.534	59.8997
1.528	60.1577
1.522	60.3284
1.516	60.4782
1.51	60.6086
1.504	60.7486
1.498	60.8167
1.492	60.8923
1.486	60.9226
1.48	60.8902
1.474	60.9406
1.468	61.0333
1.462	61.0456
1.456	61.0975
1.45	60.9607
1.444	60.9577
1.438	61.2498
1.432	61.2398
1.426	61.2909
1.42	61.1646
1.414	61.1703
1.408	61.3999
1.402	61.4754
1.396	61.5533
1.39	61.64
1.384	61.6357
1.378	61.6261
1.372	61.5577
1.366	61.5816
1.36	61.5483
1.354	61.4904
1.348	61.5231
1.342	61.529
1.336	61.539
1.33	61.6034
1.324	61.5988
1.318	61.6182
1.312	61.554
1.306	61.5754
1.3	61.6095
1.294	61.5935
1.288	61.5828
1.282	61.5849
1.276	61.6168
1.27	61.5863
1.264	61.6379
1.258	61.6372
1.252	61.6644
1.246	61.6269
1.24	61.685
1.234	61.6519
1.228	61.6368
1.222	61.6269
1.216	61.6894
1.21	61.6899
1.204	61.677
1.198	61.7007
1.192	61.7339
1.186	61.7646
1.18	61.7003
1.174	61.7192
1.168	61.748
1.162	61.8232
1.156	61.7699
1.15	61.8062
1.144	61.7627
1.138	61.7794
1.132	61.8639
1.126	61.8608
1.12	61.8744
1.114	61.9264
1.108	61.8603
1.102	61.8107
1.096	61.9018
1.09	61.8738
1.084	61.925
1.078	61.8954
1.072	62.0263
1.066	61.952
1.06	61.9727
1.054	62.0613
1.048	62.015
1.042	62.0285
1.036	61.9962
1.03	62.0579
1.024	62.1009
1.018	62.0359
1.012	62.1132
1.006	62.0543
1	62.1905
0.994	62.1852
0.988	62.1345
0.982	62.1478
0.976	62.2064
0.97	62.2233
0.964	62.2999
0.958	62.2135
0.952	62.3202
0.946	62.3621
0.94	62.3146
0.934	62.4198
0.928	62.4295
0.922	62.4338
0.916	62.4854
0.91	62.5266
0.904	62.5343
0.898	62.6295
0.892	62.6251
0.886	62.7549
0.88	62.6697
0.874	62.6743
0.868	62.7968
0.862	62.872
0.856	63.1363
0.85	63.129
0.844	63.1455
0.838	63.2136
0.832	63.2345
0.826	63.2288
0.82	63.2723
0.814	63.2387
0.808	63.2799
0.802	63.2724
0.796	63.2216
0.79	63.2421
0.784	63.2453
0.778	63.2344
0.772	63.1886
0.766	63.2119
0.76	63.2133
0.754	63.2029
0.748	63.2146
0.742	63.2267
0.736	63.2224
0.73	63.2475
0.724	63.2415
0.718	63.2396
0.712	63.2576
0.706	63.2611
0.7	63.2537
0.694	63.2739
0.688	63.2553
0.682	63.2816
0.676	63.2723
0.67	63.2529
0.664	63.2701
0.658	63.2663
0.652	63.2777
0.646	63.2633
0.64	63.2832
0.634	63.2637
0.628	63.278
0.622	63.2708
0.616	63.2735
0.61	63.2705
0.604	63.2732
0.598	63.2801
0.592	63.3117
0.586	63.3051
0.58	63.2862
0.574	63.2748
0.568	63.2568
0.562	63.2448
0.556	63.1965
0.55	63.1895
0.544	63.1562
0.538	63.1235
0.532	63.1063
0.526	63.0679
0.52	63.0193
0.514	63.0056
0.508	62.9688
0.502	62.8925
0.496	62.8475
0.49	62.785
0.484	62.7447
0.478	62.7357
0.472	62.7192
0.466	62.7043
0.46	62.6882
0.454	62.6511
0.448	62.6049
0.442	62.5224
0.436	62.4652
0.43	62.3953
0.424	62.3149
0.418	62.2292
0.412	62.1441
0.406	62.0652
0.4	61.9844
