Name: Arsenopyrite FeAsS
Type: Mineral
Class: Sulfides
Particle Size: 0-45um
Sample No.: S-5A
Owner: JPL
Origin: USA, Nevada, Lander County, Austin.
Measurement: Hemispherical reflectance
X Units: Wavelength (micrometers)
Y Units: Reflectance (percent)
wavelength	value
2.5	6.19496
2.494	6.22586
2.488	6.27396
2.482	6.18139
2.476	6.23938
2.47	6.25898
2.464	6.33462
2.458	6.12893
2.452	6.25354
2.446	6.13999
2.44	6.21791
2.434	6.06367
2.428	6.10389
2.422	6.10963
2.416	6.12717
2.41	6.12454
2.404	6.10104
2.398	6.0655
2.392	6.05694
2.386	6.10506
2.38	6.0768
2.374	6.12341
2.368	6.072
2.362	6.04476
2.356	6.08323
2.35	6.05291
2.344	6.0784
2.338	6.06967
2.332	6.06827
2.326	6.01614
2.32	6.03468
2.314	6.01524
2.308	5.98815
2.302	5.97948
2.296	6.01396
2.29	5.98659
2.284	5.95011
2.278	6.0072
2.272	5.95765
2.266	5.92065
2.26	5.96811
2.254	6.00568
2.248	5.91051
2.242	5.94962
2.236	5.89685
2.23	5.91517
2.224	5.93494
2.218	5.88798
2.212	6.03883
2.206	5.91621
2.2	5.8705
2.194	5.79255
2.188	5.86203
2.182	5.88296
2.176	5.96335
2.17	5.97039
2.164	5.9861
2.158	5.88377
2.152	5.96664
2.146	5.94687
2.14	5.94084
2.134	5.90502
2.128	5.90631
2.122	5.80832
2.116	5.81911
2.11	5.76573
2.104	5.7976
2.098	5.78167
2.092	5.77733
2.086	5.72341
2.08	5.74968
2.074	5.73135
2.068	5.77202
2.062	5.77398
2.056	5.77302
2.05	5.78921
2.044	5.7505
2.038	5.77359
2.032	5.77698
2.026	5.7555
2.02	5.67952
2.014	5.69845
2.008	5.74196
2.002	5.74104
1.996	5.74189
1.99	5.7051
1.984	5.68145
1.978	5.67234
1.972	5.70402
1.966	5.70235
1.96	5.63906
1.954	5.6635
1.948	5.68053
1.942	5.69815
1.936	5.66389
1.93	5.62932
1.924	5.61094
1.918	5.63116
1.912	5.63017
1.906	5.65856
1.9	5.58501
1.894	5.66212
1.888	5.63272
1.882	5.65385
1.876	5.58794
1.87	5.48914
1.864	5.55875
1.858	5.58444
1.852	5.62163
1.846	5.50282
1.84	5.5688
1.834	5.5723
1.828	5.52884
1.822	5.51877
1.816	5.47889
1.81	5.55669
1.804	5.48127
1.798	5.50981
1.792	5.52755
1.786	5.47534
1.78	5.4743
1.774	5.45137
1.768	5.4946
1.762	5.46331
1.756	5.4019
1.75	5.44654
1.744	5.40871
1.738	5.42755
1.732	5.40115
1.726	5.37271
1.72	5.398
1.714	5.34331
1.708	5.35539
1.702	5.35019
1.696	5.37003
1.69	5.28692
1.684	5.3397
1.678	5.29479
1.672	5.35169
1.666	5.3565
1.66	5.28282
1.654	5.32176
1.648	5.26748
1.642	5.36882
1.636	5.24298
1.63	5.25713
1.624	5.23059
1.618	5.25677
1.612	5.24091
1.606	5.25702
1.6	5.23961
1.594	5.2429
1.588	5.19872
1.582	5.15936
1.576	5.17904
1.57	5.23747
1.564	5.1821
1.558	5.19347
1.552	5.15106
1.546	5.16238
1.54	5.11143
1.534	5.12255
1.528	5.15834
1.522	5.18546
1.516	5.14825
1.51	5.08475
1.504	5.10367
1.498	5.04765
1.492	5.1078
1.486	5.1827
1.48	5.11552
1.474	5.18419
1.468	5.02508
1.462	5.05909
1.456	5.05687
1.45	5.04913
1.444	5.09012
1.438	5.06413
1.432	5.03924
1.426	5.07517
1.42	4.9759
1.414	5.01807
1.408	5.09127
1.402	5.0963
1.396	5.08493
1.39	5.04931
1.384	5.04128
1.378	5.0735
1.372	4.96946
1.366	5.03928
1.36	5.00979
1.354	5.08598
1.348	5.01718
1.342	4.95556
1.336	4.98569
1.33	4.99813
1.324	4.91796
1.318	5.00893
1.312	4.97149
1.306	4.91997
1.3	5.01841
1.294	4.97333
1.288	4.95147
1.282	4.94896
1.276	4.93094
1.27	4.88179
1.264	4.9193
1.258	4.9235
1.252	4.88248
1.246	4.83249
1.24	4.88786
1.234	4.89118
1.228	4.84416
1.222	4.87424
1.216	4.84205
1.21	4.91161
1.204	4.86341
1.198	4.85339
1.192	4.84449
1.186	4.90945
1.18	4.81303
1.174	4.83213
1.168	4.8406
1.162	4.86296
1.156	4.82
1.15	4.80671
1.144	4.86034
1.138	4.84289
1.132	4.81392
1.126	4.82229
1.12	4.81887
1.114	4.84748
1.108	4.84713
1.102	4.85089
1.096	4.85162
1.09	4.88138
1.084	4.77496
1.078	4.88502
1.072	4.82817
1.066	4.81504
1.06	4.87003
1.054	4.79222
1.048	4.80857
1.042	4.86641
1.036	4.9161
1.03	4.9114
1.024	4.85855
1.018	4.81638
1.012	4.87888
1.006	4.84192
1	4.90585
0.994	4.83903
0.988	4.87668
0.982	4.87486
0.976	4.88219
0.97	4.87138
0.964	4.89806
0.958	4.89288
0.952	4.89628
0.946	4.9158
0.94	4.95843
0.934	4.92645
0.928	4.98538
0.922	4.95294
0.916	4.90974
0.91	4.96428
0.904	4.9329
0.898	4.95964
0.892	5.00835
0.886	4.97287
0.88	5.08867
0.874	4.97645
0.868	5.03904
0.862	5.07254
0.856	5.29164
0.85	5.30287
0.844	5.31328
0.838	5.31994
0.832	5.33454
0.826	5.33637
0.82	5.34773
0.814	5.3521
0.808	5.36228
0.802	5.36848
0.796	5.37859
0.79	5.37828
0.784	5.38421
0.778	5.38444
0.772	5.3989
0.766	5.40263
0.76	5.40735
0.754	5.41839
0.748	5.42471
0.742	5.43145
0.736	5.43755
0.73	5.44861
0.724	5.45742
0.718	5.4693
0.712	5.47557
0.706	5.48726
0.7	5.49547
0.694	5.507
0.688	5.5194
0.682	5.52607
0.676	5.53576
0.67	5.54707
0.664	5.56089
0.658	5.57067
0.652	5.58044
0.646	5.59203
0.64	5.60354
0.634	5.61482
0.628	5.6243
0.622	5.63673
0.616	5.64801
0.61	5.66071
0.604	5.67205
0.598	5.68387
0.592	5.69598
0.586	5.70544
0.58	5.71804
0.574	5.7273
0.568	5.73806
0.562	5.74473
0.556	5.75459
0.55	5.76258
0.544	5.76981
0.538	5.77699
0.532	5.78178
0.526	5.78824
0.52	5.79383
0.514	5.79907
0.508	5.80509
0.502	5.80797
0.496	5.80912
0.49	5.80272
0.484	5.79929
0.478	5.78967
0.472	5.7834
0.466	5.77345
0.46	5.76841
0.454	5.75572
0.448	5.74715
0.442	5.73137
0.436	5.71964
0.43	5.70292
0.424	5.68968
0.418	5.66503
0.412	5.64378
0.406	5.61492
0.4	5.5821
