Name: Arsenopyrite FeAsS
Type: Mineral
Class: Sulfides
Particle Size: 125-500um
Sample No.: S-5A
Owner: JPL
Wavelength Range: VNIR-SWIR
Origin: USA, Nevada, Lander County, Austin
Measurement: Hemispherical reflectance
X Units: Wavelength (micrometers)
Y Units: Reflectance (percent)
wavelength	value
0.4	9.08
0.403	9.09
0.406	9.26
0.409	9.18
0.412	9.23
0.415	9.24
0.418	9.18
0.421	9.36
0.424	9.29
0.427	9.22
0.43	9.32
0.433	9.23
0.436	9.42
0.439	9.45
0.442	9.4
0.445	9.52
0.448	9.49
0.451	9.61
0.454	9.6
0.457	9.59
0.46	9.49
0.463	9.63
0.466	9.59
0.469	9.71
0.472	9.82
0.475	9.74
0.478	9.72
0.481	9.76
0.484	9.76
0.487	9.83
0.49	9.83
0.493	9.82
0.496	9.89
0.499	9.91
0.502	9.95
0.505	9.94
0.508	10
0.511	9.97
0.514	10.03
0.517	10.12
0.52	10.1
0.523	10.1
0.526	10.05
0.529	10.09
0.532	10.18
0.535	10.12
0.538	10.25
0.541	10.17
0.544	10.23
0.547	10.22
0.55	10.17
0.553	10.28
0.556	10.32
0.559	10.25
0.562	10.32
0.565	10.34
0.568	10.47
0.571	10.39
0.574	10.34
0.577	10.32
0.58	10.34
0.583	10.4
0.586	10.44
0.589	10.43
0.592	10.37
0.595	10.42
0.598	10.42
0.601	10.5
0.604	10.6
0.607	10.55
0.61	10.41
0.613	10.39
0.616	10.61
0.619	10.52
0.622	10.46
0.625	10.46
0.628	10.48
0.631	10.56
0.634	10.58
0.637	10.53
0.64	10.55
0.643	10.5
0.646	10.58
0.649	10.61
0.652	10.66
0.655	10.64
0.658	10.64
0.661	10.61
0.664	10.65
0.667	10.63
0.67	10.61
0.673	10.62
0.676	10.7
0.679	10.74
0.682	10.73
0.685	10.78
0.688	10.73
0.691	10.75
0.694	10.68
0.697	10.75
0.7	10.74
0.703	10.79
0.706	10.77
0.709	10.75
0.712	10.87
0.715	10.83
0.718	10.91
0.721	10.79
0.724	10.78
0.727	10.83
0.73	10.86
0.733	10.88
0.736	10.66
0.739	10.68
0.742	10.77
0.745	10.81
0.748	10.83
0.751	10.7
0.754	10.72
0.757	10.71
0.76	10.81
0.763	10.88
0.766	10.84
0.769	11.01
0.772	11.02
0.775	11.02
0.778	11.08
0.781	10.95
0.784	11.01
0.787	11.05
0.79	11.07
0.793	11.01
0.796	10.97
0.799	10.99
0.808	11.17
0.82	11.17
0.832	11.13
0.844	11.11
0.856	11.14
0.868	11.04
0.88	11.03
0.892	10.99
0.904	11.01
0.916	11.02
0.928	11.02
0.94	11.02
0.952	10.96
0.964	10.97
0.976	10.95
0.988	10.94
1	10.95
1.012	10.97
1.024	11.01
1.036	10.96
1.048	10.98
1.06	10.95
1.072	10.96
1.084	10.99
1.096	10.93
1.108	10.96
1.12	11
1.132	10.94
1.144	11.01
1.156	10.97
1.168	11.01
1.18	11.01
1.192	10.94
1.204	10.98
1.216	10.91
1.228	11.01
1.24	11
1.252	11.05
1.264	11.05
1.276	11.01
1.288	11.03
1.3	11.02
1.312	11.12
1.324	11.1
1.336	11.14
1.348	11.19
1.36	11.21
1.372	11.21
1.384	11.25
1.396	11.27
1.408	11.23
1.42	11.22
1.432	11.26
1.444	11.29
1.456	11.3
1.468	11.3
1.48	11.34
1.492	11.32
1.504	11.47
1.516	11.47
1.528	11.51
1.54	11.48
1.552	11.45
1.564	11.45
1.576	11.51
1.588	11.51
1.6	11.48
1.612	11.48
1.624	11.54
1.636	11.53
1.648	11.56
1.66	11.61
1.672	11.64
1.684	11.7
1.696	11.65
1.708	11.65
1.72	11.56
1.732	11.67
1.744	11.58
1.756	11.6
1.768	11.64
1.78	11.59
1.792	11.59
1.804	11.54
1.816	11.6
1.828	11.64
1.84	11.61
1.852	11.66
1.864	11.58
1.876	11.52
1.888	11.59
1.9	11.56
1.912	11.5
1.924	11.54
1.936	11.52
1.948	11.56
1.96	11.55
1.972	11.63
1.984	11.6
1.996	11.66
2.008	11.65
2.02	11.69
2.032	11.73
2.044	11.75
2.056	11.77
2.068	11.77
2.08	11.67
2.092	11.69
2.104	11.75
2.116	11.73
2.128	11.73
2.14	11.68
2.152	11.68
2.164	11.62
2.176	11.63
2.188	11.61
2.2	11.56
2.212	11.62
2.224	11.58
2.236	11.64
2.248	11.62
2.26	11.59
2.272	11.67
2.284	11.59
2.296	11.62
2.308	11.66
2.32	11.78
2.332	11.74
2.344	11.75
2.356	11.73
2.368	11.74
2.38	11.79
2.392	11.79
2.404	11.71
2.416	11.71
2.428	11.68
2.44	11.66
2.452	11.66
2.464	11.66
2.476	11.7
2.488	11.73
2.5	11.72
