Name: Chlorite
Type: Mineral
Class: Silicates
Subclass: Phyllosilicates
Particle Size: 125-500um
Sample No.: PS-12F
Owner: JPL
Origin: USA, New Mexico.
Measurement: Hemispherical reflectance
X Units: Wavelength (micrometers)
Y Units: Reflectance (percent)
wavelength	value
2.5	19.7856
2.494	19.6972
2.488	20.3392
2.482	20.7718
2.476	21.2259
2.47	21.6918
2.464	22.156
2.458	22.5618
2.452	22.7762
2.446	23.0743
2.44	23.1435
2.434	23.2855
2.428	23.3577
2.422	23.3575
2.416	23.3586
2.41	23.3089
2.404	23.1598
2.398	22.7322
2.392	21.9867
2.386	21.1048
2.38	19.9865
2.374	18.8996
2.368	18.1
2.362	17.5631
2.356	17.3786
2.35	17.5533
2.344	18.0151
2.338	18.6346
2.332	19.3979
2.326	20.1348
2.32	20.7135
2.314	21.3775
2.308	21.971
2.302	22.546
2.296	23.0163
2.29	23.0055
2.284	22.8019
2.278	22.055
2.272	21.0311
2.266	19.8883
2.26	19.287
2.254	19.9093
2.248	21.6213
2.242	24.1546
2.236	26.51
2.23	28.3943
2.224	29.9319
2.218	30.8447
2.212	31.563
2.206	32.1024
2.2	32.6097
2.194	32.984
2.188	33.2899
2.182	33.5378
2.176	33.7974
2.17	33.8459
2.164	33.967
2.158	34.0351
2.152	34.153
2.146	34.1534
2.14	34.0529
2.134	34.0015
2.128	34.0105
2.122	33.9588
2.116	33.9804
2.11	33.9086
2.104	33.7854
2.098	33.6565
2.092	33.4751
2.086	33.3028
2.08	33.0861
2.074	32.8332
2.068	32.5933
2.062	32.2298
2.056	31.8322
2.05	31.3271
2.044	30.8383
2.038	30.1968
2.032	29.4178
2.026	28.9211
2.02	28.4132
2.014	28.0251
2.008	27.916
2.002	27.8085
1.996	27.9429
1.99	28.1024
1.984	28.3719
1.978	28.579
1.972	28.7151
1.966	28.7796
1.96	28.8068
1.954	28.8309
1.948	28.8992
1.942	28.9794
1.936	28.9583
1.93	28.7974
1.924	28.6924
1.918	28.5208
1.912	28.4383
1.906	28.2417
1.9	28.1313
1.894	28.1315
1.888	28.1213
1.882	28.0089
1.876	27.9606
1.87	27.9806
1.864	27.988
1.858	27.9524
1.852	27.9047
1.846	27.824
1.84	27.7661
1.834	27.5986
1.828	27.5391
1.822	27.3694
1.816	27.2519
1.81	27.1005
1.804	26.9504
1.798	26.8218
1.792	26.6094
1.786	26.5141
1.78	26.2554
1.774	26.0224
1.768	25.8898
1.762	25.7279
1.756	25.4931
1.75	25.2831
1.744	25.0591
1.738	24.8864
1.732	24.648
1.726	24.3957
1.72	24.2349
1.714	23.9888
1.708	23.7082
1.702	23.4811
1.696	23.1987
1.69	22.987
1.684	22.7598
1.678	22.5721
1.672	22.304
1.666	22.0013
1.66	21.7537
1.654	21.5152
1.648	21.3142
1.642	21.0592
1.636	20.7106
1.63	20.4902
1.624	20.2741
1.618	19.9824
1.612	19.7602
1.606	19.5391
1.6	19.2512
1.594	19.0511
1.588	18.7789
1.582	18.6051
1.576	18.3539
1.57	18.1393
1.564	17.9625
1.558	17.7655
1.552	17.5752
1.546	17.424
1.54	17.2812
1.534	17.1266
1.528	16.9499
1.522	16.8088
1.516	16.718
1.51	16.6101
1.504	16.4338
1.498	16.2796
1.492	16.1525
1.486	15.9536
1.48	15.7199
1.474	15.614
1.468	15.3437
1.462	15.1542
1.456	14.9819
1.45	14.7515
1.444	14.625
1.438	14.5187
1.432	14.4045
1.426	14.1843
1.42	13.3989
1.414	12.1396
1.408	12.5354
1.402	13.128
1.396	13.5536
1.39	13.6757
1.384	13.4907
1.378	13.3998
1.372	13.1215
1.366	13.048
1.36	12.6803
1.354	12.7228
1.348	12.5149
1.342	12.2864
1.336	12.1142
1.33	11.9654
1.324	11.7899
1.318	11.5527
1.312	11.4733
1.306	11.2748
1.3	11.0259
1.294	10.9809
1.288	10.7966
1.282	10.5731
1.276	10.469
1.27	10.3135
1.264	10.1661
1.258	10.0096
1.252	9.95673
1.246	9.7909
1.24	9.65561
1.234	9.50697
1.228	9.44249
1.222	9.31836
1.216	9.22884
1.21	9.09496
1.204	8.957
1.198	8.88843
1.192	8.80027
1.186	8.70542
1.18	8.63393
1.174	8.55193
1.168	8.51593
1.162	8.46693
1.156	8.35382
1.15	8.30712
1.144	8.2282
1.138	8.20672
1.132	8.18631
1.126	8.0803
1.12	8.08769
1.114	8.07604
1.108	8.14748
1.102	8.06432
1.096	8.09047
1.09	8.07575
1.084	7.95688
1.078	8.03111
1.072	8.07083
1.066	8.03331
1.06	7.99651
1.054	8.02799
1.048	8.12528
1.042	8.08289
1.036	8.04254
1.03	7.99706
1.024	8.0535
1.018	8.08341
1.012	8.12734
1.006	8.06273
1	8.10782
0.994	8.04648
0.988	8.06609
0.982	8.00923
0.976	7.94878
0.97	7.91722
0.964	7.84922
0.958	7.79082
0.952	7.77465
0.946	7.75152
0.94	7.65906
0.934	7.63148
0.928	7.68994
0.922	7.61211
0.916	7.5606
0.91	7.6023
0.904	7.52377
0.898	7.55274
0.892	7.543
0.886	7.57882
0.88	7.64459
0.874	7.63233
0.868	7.63313
0.862	7.65841
0.856	8.03946
0.85	8.0902
0.844	8.15904
0.838	8.20258
0.832	8.25584
0.826	8.30208
0.82	8.348
0.814	8.38926
0.808	8.417
0.802	8.45075
0.796	8.45754
0.79	8.46693
0.784	8.45908
0.778	8.45311
0.772	8.44006
0.766	8.43508
0.76	8.42598
0.754	8.41836
0.748	8.4033
0.742	8.41178
0.736	8.41252
0.73	8.42131
0.724	8.44126
0.718	8.45975
0.712	8.49437
0.706	8.52877
0.7	8.5812
0.694	8.63149
0.688	8.69662
0.682	8.76447
0.676	8.83883
0.67	8.89456
0.664	8.97927
0.658	9.07107
0.652	9.16035
0.646	9.25501
0.64	9.35043
0.634	9.45168
0.628	9.54874
0.622	9.64671
0.616	9.75386
0.61	9.85845
0.604	9.95699
0.598	10.0634
0.592	10.165
0.586	10.2545
0.58	10.3381
0.574	10.4061
0.568	10.4629
0.562	10.4976
0.556	10.5194
0.55	10.5008
0.544	10.4667
0.538	10.4012
0.532	10.3248
0.526	10.2352
0.52	10.1234
0.514	9.98085
0.508	9.81272
0.502	9.62311
0.496	9.41392
0.49	9.28174
0.484	9.12663
0.478	8.94037
0.472	8.77636
0.466	8.65615
0.46	8.54652
0.454	8.45326
0.448	8.35401
0.442	8.19039
0.436	7.96132
0.43	7.71497
0.424	7.47707
0.418	7.2732
0.412	7.0871
0.406	6.94061
0.4	6.81412
