Name: Amblygonite (Li,Na)Al(PO_4)(F,OH)
Type: Mineral
Class: Phosphates
Particle Size: 45-125um
Sample No.: P-3A
Owner: JPL
Wavelength Range: VNIR-SWIR
Origin: USA, California, San Diego County, Pala
Measurement: Hemispherical reflectance
X Units: Wavelength (micrometers)
Y Units: Reflectance (percent)
wavelength	value
0.4	78.12
0.403	78.27
0.406	78.53
0.409	78.77
0.412	79.04
0.415	79.35
0.418	79.49
0.421	79.66
0.424	79.86
0.427	80.1
0.43	80.3
0.433	80.51
0.436	80.84
0.439	80.86
0.442	80.96
0.445	81.14
0.448	81.42
0.451	81.47
0.454	81.61
0.457	81.77
0.46	81.89
0.463	82.16
0.466	82.32
0.469	82.36
0.472	82.44
0.475	82.64
0.478	82.77
0.481	82.83
0.484	83.05
0.487	82.93
0.49	83.03
0.493	83.07
0.496	83.18
0.499	83.33
0.502	83.53
0.505	83.41
0.508	83.55
0.511	83.64
0.514	83.74
0.517	83.89
0.52	83.79
0.523	83.76
0.526	83.82
0.529	84.12
0.532	84.02
0.535	84.26
0.538	84.2
0.541	84.09
0.544	84.01
0.547	84.19
0.55	84.31
0.553	84.39
0.556	84.36
0.559	84.23
0.562	84.68
0.565	84.75
0.568	84.71
0.571	84.67
0.574	84.65
0.577	84.61
0.58	84.6
0.583	84.63
0.586	84.75
0.589	84.81
0.592	84.87
0.595	84.92
0.598	84.9
0.601	85.21
0.604	85.22
0.607	85.33
0.61	85.28
0.613	85.31
0.616	85.41
0.619	85.41
0.622	85.56
0.625	85.43
0.628	85.53
0.631	85.59
0.634	85.74
0.637	85.75
0.64	85.81
0.643	85.88
0.646	85.85
0.649	85.94
0.652	86.11
0.655	86.16
0.658	85.9
0.661	86.11
0.664	86.11
0.667	86.29
0.67	86.32
0.673	86.27
0.676	86.22
0.679	86.1
0.682	86.22
0.685	86.34
0.688	86.29
0.691	86.35
0.694	86.22
0.697	86.31
0.7	86.24
0.703	86.44
0.706	86.43
0.709	86.36
0.712	86.35
0.715	86.34
0.718	86.46
0.721	86.41
0.724	86.4
0.727	86.41
0.73	86.29
0.733	86.3
0.736	86.44
0.739	86.3
0.742	86.2
0.745	86.35
0.748	86.43
0.751	86.37
0.754	86.3
0.757	86.43
0.76	86.31
0.763	86.3
0.766	86.49
0.769	86.5
0.772	86.47
0.775	86.33
0.778	86.44
0.781	86.6
0.784	86.51
0.787	86.56
0.79	86.5
0.793	86.51
0.796	86.63
0.799	86.57
0.808	86.7
0.82	86.77
0.832	86.89
0.844	87.16
0.856	87.23
0.868	87.34
0.88	87.28
0.892	87.45
0.904	87.39
0.916	87.4
0.928	87.4
0.94	87.39
0.952	87.38
0.964	87.39
0.976	87.45
0.988	87.53
1	87.57
1.012	87.59
1.024	87.61
1.036	87.82
1.048	87.75
1.06	87.84
1.072	87.93
1.084	87.89
1.096	87.9
1.108	87.86
1.12	87.89
1.132	87.84
1.144	87.95
1.156	87.87
1.168	87.85
1.18	87.83
1.192	87.82
1.204	87.75
1.216	87.53
1.228	87.52
1.24	87.35
1.252	87.37
1.264	87.16
1.276	86.76
1.288	86.3
1.3	86.49
1.312	86.45
1.324	86.22
1.336	85.73
1.348	84.92
1.36	85.15
1.372	84.92
1.384	83.58
1.396	82.67
1.408	78.87
1.42	80.04
1.432	80.87
1.444	80.44
1.456	80.44
1.468	79.34
1.48	78.45
1.492	77.54
1.504	75.49
1.516	73.14
1.528	70.95
1.54	70.54
1.552	71.99
1.564	73.83
1.576	75.48
1.588	76.37
1.6	76.89
1.612	77.25
1.624	77.77
1.636	77.91
1.648	78.07
1.66	78.29
1.672	78.44
1.684	78.33
1.696	78.19
1.708	77.56
1.72	76.48
1.732	75.81
1.744	75.65
1.756	75.37
1.768	75.28
1.78	75.78
1.792	76.48
1.804	76.71
1.816	76.26
1.828	73.2
1.84	68.99
1.852	69.46
1.864	71.24
1.876	71.51
1.888	71.12
1.9	70.32
1.912	69.79
1.924	70
1.936	69.94
1.948	69.75
1.96	68.09
1.972	63.1
1.984	56.42
1.996	57.93
2.008	64.12
2.02	66.76
2.032	66.24
2.044	64.96
2.056	64.42
2.068	64.52
2.08	65.04
2.092	64.57
2.104	63.22
2.116	61.49
2.128	59.5
2.14	54.33
2.152	42.36
2.164	29.45
2.176	26.07
2.188	29.74
2.2	35.22
2.212	40.62
2.224	44.95
2.236	48.3
2.248	51
2.26	53.06
2.272	54.8
2.284	56.58
2.296	58.75
2.308	60.25
2.32	60.52
2.332	58.57
2.344	51.18
2.356	39.38
2.368	31.77
2.38	35.13
2.392	43.68
2.404	50.02
2.416	52.42
2.428	52.38
2.44	50.8
2.452	48.14
2.464	45.2
2.476	42.6
2.488	40.55
2.5	39.01
