Name: Quartz SiO_2
Type: Mineral
Class: Silicates
Subclass: Tectosilicates
Particle Size: 125-500um
Sample No.: TS-1E
Owner: JPL
Wavelength Range: VNIR-SWIR
Description: Crysoprase
Measurement: Hemispherical reflectance
X Units: Wavelength (micrometers)
Y Units: Reflectance (percent)
wavelength	value
0.4	43.71
0.403	44.56
0.406	45.48
0.409	46.61
0.412	47.66
0.415	49
0.418	50.51
0.421	51.98
0.424	53.36
0.427	54.96
0.43	56.21
0.433	57.36
0.436	58.26
0.439	59.09
0.442	59.67
0.445	60.31
0.448	60.83
0.451	61.42
0.454	62.01
0.457	62.6
0.46	63.01
0.463	63.88
0.466	64.65
0.469	65.25
0.472	65.83
0.475	66.57
0.478	67.17
0.481	67.51
0.484	68.03
0.487	68.46
0.49	68.81
0.493	68.95
0.496	69.09
0.499	69.39
0.502	69.8
0.505	69.89
0.508	70.23
0.511	70.14
0.514	70.48
0.517	70.54
0.52	70.56
0.523	70.55
0.526	70.67
0.529	70.8
0.532	70.68
0.535	70.67
0.538	70.85
0.541	70.66
0.544	70.54
0.547	70.61
0.55	70.4
0.553	70.43
0.556	70.31
0.559	70.16
0.562	70.07
0.565	69.82
0.568	69.3
0.571	68.65
0.574	68.1
0.577	67.43
0.58	66.78
0.583	66.27
0.586	65.74
0.589	64.9
0.592	64.25
0.595	63.49
0.598	62.69
0.601	61.82
0.604	61.19
0.607	60.37
0.61	59.33
0.613	58.46
0.616	57.76
0.619	57
0.622	56.21
0.625	55.56
0.628	55.07
0.631	54.44
0.634	53.82
0.637	53.43
0.64	53.07
0.643	52.78
0.646	52.61
0.649	52.67
0.652	52.63
0.655	52.54
0.658	52.71
0.661	52.86
0.664	52.92
0.667	53.16
0.67	53.46
0.673	53.59
0.676	53.76
0.679	54.33
0.682	54.49
0.685	54.72
0.688	55.03
0.691	55.22
0.694	55.45
0.697	55.74
0.7	55.89
0.703	56.07
0.706	56.46
0.709	56.69
0.712	56.93
0.715	57.24
0.718	57.41
0.721	57.64
0.724	57.85
0.727	58.19
0.73	58.35
0.733	58.6
0.736	59
0.739	59.52
0.742	59.98
0.745	60.47
0.748	61.16
0.751	61.64
0.754	62.22
0.757	63.07
0.76	63.74
0.763	64.42
0.766	65.18
0.769	65.9
0.772	66.4
0.775	67.12
0.778	67.93
0.781	68.43
0.784	69.11
0.787	69.77
0.79	70.18
0.793	70.68
0.796	71.28
0.799	71.52
0.808	72.78
0.82	73.9
0.832	74.68
0.844	75.06
0.856	75.21
0.868	74.98
0.88	74.59
0.892	74.03
0.904	73.24
0.916	72.22
0.928	71.3
0.94	70.1
0.952	68.7
0.964	67.35
0.976	66.1
0.988	64.81
1	63.84
1.012	62.43
1.024	61.39
1.036	60.53
1.048	59.68
1.06	59.08
1.072	58.59
1.084	58.29
1.096	58.08
1.108	58.07
1.12	58.16
1.132	58.32
1.144	58.42
1.156	58.69
1.168	59.12
1.18	59.65
1.192	60.18
1.204	60.93
1.216	61.51
1.228	62.24
1.24	63.04
1.252	63.86
1.264	64.94
1.276	65.95
1.288	66.97
1.3	68.01
1.312	68.93
1.324	69.74
1.336	70.56
1.348	71.05
1.36	71.42
1.372	71.3
1.384	69.98
1.396	66.2
1.408	59.68
1.42	63.48
1.432	64.85
1.444	66.02
1.456	66.55
1.468	67.23
1.48	68.12
1.492	68.82
1.504	69.34
1.516	69.91
1.528	70.47
1.54	70.89
1.552	71.15
1.564	71.45
1.576	71.7
1.588	71.99
1.6	72.17
1.612	72.3
1.624	72.41
1.636	72.54
1.648	72.56
1.66	72.8
1.672	72.87
1.684	72.82
1.696	72.83
1.708	72.83
1.72	72.7
1.732	72.63
1.744	72.44
1.756	72.31
1.768	72.02
1.78	71.91
1.792	71.83
1.804	71.74
1.816	71.59
1.828	71.43
1.84	71.22
1.852	70.7
1.864	69.29
1.876	65.9
1.888	60.53
1.9	55.18
1.912	52.99
1.924	53.48
1.936	54.48
1.948	55.7
1.96	57.11
1.972	58.6
1.984	60.13
1.996	61.56
2.008	62.77
2.02	63.88
2.032	64.7
2.044	65.31
2.056	65.65
2.068	65.92
2.08	65.97
2.092	66.03
2.104	66.05
2.116	66.03
2.128	65.52
2.14	64.64
2.152	63.18
2.164	61.45
2.176	58.92
2.188	56.13
2.2	53.68
2.212	52.1
2.224	51.53
2.236	51.4
2.248	51.27
2.26	51.27
2.272	51.22
2.284	50.84
2.296	50.5
2.308	50.87
2.32	51.94
2.332	53.4
2.344	54.8
2.356	55.58
2.368	55.67
2.38	55.31
2.392	54.41
2.404	53.24
2.416	51.93
2.428	50.64
2.44	49.17
2.452	47.65
2.464	46.02
2.476	44.69
2.488	43.65
2.5	42.88
