Name: Pyrite FeS_2
Type: Mineral
Class: Sulfides
Particle Size: 45-125um
Sample No.: S-2A
Owner: JPL
Origin: Italy, Tuscany, Elba, Rio Marina Isle.
Measurement: Hemispherical reflectance
X Units: Wavelength (micrometers)
Y Units: Reflectance (percent)
wavelength	value
2.5	7.56114
2.494	7.43025
2.488	7.78836
2.482	7.55622
2.476	7.80576
2.47	7.63385
2.464	7.70441
2.458	7.65216
2.452	7.68007
2.446	7.80691
2.44	7.85502
2.434	7.83254
2.428	7.86088
2.422	7.82363
2.416	7.79674
2.41	7.83501
2.404	7.87608
2.398	7.9382
2.392	7.91335
2.386	7.95057
2.38	7.94412
2.374	8.08892
2.368	8.05299
2.362	8.09345
2.356	8.10704
2.35	8.14672
2.344	8.22743
2.338	8.21694
2.332	8.23669
2.326	8.22357
2.32	8.20615
2.314	8.30178
2.308	8.25711
2.302	8.26853
2.296	8.30105
2.29	8.24656
2.284	8.28865
2.278	8.27354
2.272	8.34577
2.266	8.29698
2.26	8.25952
2.254	8.25151
2.248	8.28171
2.242	8.23305
2.236	8.22661
2.23	8.31038
2.224	8.2975
2.218	8.19465
2.212	8.28073
2.206	8.22283
2.2	8.22146
2.194	8.2328
2.188	8.29477
2.182	8.27664
2.176	8.21285
2.17	8.25004
2.164	8.3303
2.158	8.29668
2.152	8.30818
2.146	8.30882
2.14	8.26308
2.134	8.24982
2.128	8.19109
2.122	8.12119
2.116	8.0701
2.11	8.04051
2.104	8.04442
2.098	8.05556
2.092	7.97079
2.086	8.01099
2.08	8.00242
2.074	7.99593
2.068	8.02708
2.062	8.03096
2.056	8.04329
2.05	8.05139
2.044	8.09376
2.038	8.03259
2.032	8.02068
2.026	8.0383
2.02	8.0959
2.014	8.03753
2.008	8.02517
2.002	8.09889
1.996	8.05084
1.99	7.99162
1.984	8.06214
1.978	8.03024
1.972	8.13222
1.966	8.10782
1.96	8.10846
1.954	8.02439
1.948	8.07654
1.942	8.17509
1.936	8.06889
1.93	8.11932
1.924	8.19884
1.918	8.26917
1.912	8.34598
1.906	8.42325
1.9	8.50624
1.894	8.6332
1.888	8.58373
1.882	8.71318
1.876	8.71755
1.87	8.67697
1.864	8.79341
1.858	8.79554
1.852	8.82814
1.846	8.80383
1.84	8.85306
1.834	8.81043
1.828	8.84939
1.822	8.93827
1.816	8.90585
1.81	8.9521
1.804	8.91648
1.798	8.97906
1.792	8.98565
1.786	8.97724
1.78	8.97891
1.774	9.04213
1.768	9.02491
1.762	9.0781
1.756	9.0729
1.75	9.14615
1.744	9.0703
1.738	9.15206
1.732	9.17803
1.726	9.18089
1.72	9.18517
1.714	9.16911
1.708	9.21029
1.702	9.22464
1.696	9.26374
1.69	9.26966
1.684	9.25769
1.678	9.33345
1.672	9.39697
1.666	9.37996
1.66	9.38719
1.654	9.43543
1.648	9.36163
1.642	9.46837
1.636	9.51745
1.63	9.42082
1.624	9.40065
1.618	9.59381
1.612	9.50681
1.606	9.49284
1.6	9.4972
1.594	9.50233
1.588	9.46675
1.582	9.53427
1.576	9.47499
1.57	9.5546
1.564	9.50776
1.558	9.55633
1.552	9.51767
1.546	9.54894
1.54	9.52445
1.534	9.47549
1.528	9.44156
1.522	9.47362
1.516	9.40266
1.51	9.51014
1.504	9.42689
1.498	9.39501
1.492	9.37278
1.486	9.3842
1.48	9.33688
1.474	9.30334
1.468	9.29245
1.462	9.26429
1.456	9.22383
1.45	9.23681
1.444	9.18693
1.438	9.20254
1.432	9.11671
1.426	9.17508
1.42	9.08909
1.414	9.07128
1.408	9.09199
1.402	9.06546
1.396	9.0772
1.39	9.01118
1.384	9.03144
1.378	9.018
1.372	8.97814
1.366	8.96073
1.36	8.93098
1.354	8.91736
1.348	8.84059
1.342	8.94892
1.336	8.92873
1.33	8.89312
1.324	8.94332
1.318	8.91215
1.312	8.92272
1.306	8.92051
1.3	8.81867
1.294	8.86802
1.288	8.84383
1.282	8.90278
1.276	8.81852
1.27	8.89207
1.264	8.87099
1.258	8.89013
1.252	8.86482
1.246	8.92091
1.24	8.84134
1.234	8.86986
1.228	8.87338
1.222	8.89783
1.216	8.89803
1.21	8.91749
1.204	8.88882
1.198	8.92118
1.192	8.96758
1.186	8.98093
1.18	8.96506
1.174	8.99871
1.168	8.96816
1.162	9.04602
1.156	9.03233
1.15	9.07602
1.144	9.02308
1.138	9.06919
1.132	9.05637
1.126	9.04282
1.12	9.0946
1.114	9.07081
1.108	9.09466
1.102	9.14966
1.096	9.03827
1.09	9.13414
1.084	9.20938
1.078	9.11981
1.072	9.20675
1.066	9.26721
1.06	9.2743
1.054	9.3075
1.048	9.39524
1.042	9.33196
1.036	9.44505
1.03	9.41268
1.024	9.42923
1.018	9.39907
1.012	9.38353
1.006	9.47336
1	9.5417
0.994	9.49733
0.988	9.52695
0.982	9.54986
0.976	9.572
0.97	9.60636
0.964	9.69283
0.958	9.66609
0.952	9.65022
0.946	9.68201
0.94	9.75936
0.934	9.85675
0.928	9.84304
0.922	9.82288
0.916	9.94069
0.91	9.89061
0.904	9.95363
0.898	9.97839
0.892	10.0621
0.886	10.0757
0.88	10.1534
0.874	10.1907
0.868	10.22
0.862	10.2065
0.856	10.3823
0.85	10.4614
0.844	10.5201
0.838	10.6
0.832	10.6627
0.826	10.7405
0.82	10.8022
0.814	10.8749
0.808	10.9685
0.802	11.0378
0.796	11.0985
0.79	11.1512
0.784	11.2207
0.778	11.2782
0.772	11.3345
0.766	11.3991
0.76	11.4632
0.754	11.504
0.748	11.559
0.742	11.6238
0.736	11.6775
0.73	11.7282
0.724	11.7773
0.718	11.8095
0.712	11.8289
0.706	11.8382
0.7	11.8362
0.694	11.8295
0.688	11.8168
0.682	11.785
0.676	11.7543
0.67	11.7171
0.664	11.664
0.658	11.6265
0.652	11.5771
0.646	11.5334
0.64	11.4903
0.634	11.4543
0.628	11.4226
0.622	11.4034
0.616	11.3846
0.61	11.3728
0.604	11.3595
0.598	11.3536
0.592	11.3442
0.586	11.3181
0.58	11.2857
0.574	11.2456
0.568	11.1949
0.562	11.1429
0.556	11.0659
0.55	11.0049
0.544	10.9302
0.538	10.8583
0.532	10.7901
0.526	10.7148
0.52	10.644
0.514	10.5638
0.508	10.4637
0.502	10.3383
0.496	10.2055
0.49	10.0266
0.484	9.83691
0.478	9.66079
0.472	9.47031
0.466	9.27622
0.46	9.07889
0.454	8.9016
0.448	8.72541
0.442	8.55316
0.436	8.3861
0.43	8.19925
0.424	7.99243
0.418	7.80582
0.412	7.62396
0.406	7.40296
0.4	7.11315
