Name: Grossular Garnet Ca_3Al_2(SiO_4)_3
Type: Mineral
Class: Silicates
Subclass: Nesosilicates
Particle Size: 45-125um
Sample No.: NS-3B
Owner: JPL
Origin: Mexico, Lake Jaco
Measurement: Hemispherical reflectance
X Units: Wavelength (micrometers)
Y Units: Reflectance (percent)
wavelength	value
15.385	2.362
15.116	2.9672
14.856	3.8783
14.605	4.2204
14.362	5.1028
14.128	5.5002
13.9	5.7288
13.68	5.8203
13.467	6.2226
13.26	6.5681
13.06	6.5886
12.866	7.833
12.677	9.0733
12.494	11.0212
12.316	13.7834
12.143	18.2889
11.974	25.0776
11.811	23.2972
11.651	28.0229
11.496	24.7406
11.345	9.8873
11.198	8.5313
11.055	23.2313
10.915	32.4136
10.779	32.1251
10.647	35.3358
10.517	36.3663
10.39	41.6387
10.267	41.9387
10.146	37.9294
10.029	29.177
9.914	16.4537
9.801	8.4703
9.691	3.5236
9.584	1.1127
9.479	0.5864
9.376	0.0565
9.275	0.1717
9.177	0.2066
9.08	0.1847
8.986	0.613
8.893	0.9499
8.803	0.925
8.714	1.3366
8.627	1.8091
8.542	1.9989
8.458	2.548
8.376	2.8891
8.296	3.3512
8.217	3.8464
8.139	4.1878
8.063	4.7294
7.989	5.0171
7.916	5.0759
7.844	5.1369
7.773	5.4349
7.704	5.8172
7.636	6.1558
7.569	6.3922
7.503	6.4887
7.439	6.9348
7.375	7.3136
7.313	7.5343
7.252	7.58
7.191	7.919
7.132	8.3193
7.073	8.8889
7.016	9.5887
6.96	10.3241
6.904	11.085
6.849	12.7087
6.795	14.6996
6.742	15.3922
6.69	16.1501
6.639	18.0316
6.588	18.1307
6.538	18.9863
6.489	21.2582
6.441	20.5241
6.393	20.1457
6.346	20.7587
6.3	19.8131
6.254	19.4829
6.209	18.1869
6.165	16.1413
6.121	13.4471
6.078	10.5467
6.036	8.2285
5.994	6.9919
5.953	5.8107
5.912	5.4627
5.872	5.6771
5.832	6.0972
5.793	6.4448
5.755	7.2946
5.716	8.3603
5.679	9.2057
5.642	10.5858
5.605	10.7777
5.569	11.1768
5.533	11.3613
5.498	11.2571
5.463	11.5665
5.429	12.2993
5.395	13.1819
5.362	14.5329
5.329	16.1134
5.296	18.9362
5.264	22.0297
5.232	23.967
5.2	25.1294
5.169	25.7879
5.139	26.7147
5.108	27.5811
5.078	28.2923
5.049	28.713
5.019	29.5834
4.99	30.1711
4.962	31.0482
4.933	31.5954
4.905	32.0725
4.878	32.5332
4.85	32.9315
4.823	33.4626
4.796	33.9676
4.77	34.5003
4.744	35.0283
4.718	35.3187
4.692	35.652
4.667	35.9736
4.642	36.3114
4.617	36.4174
4.592	36.7168
4.568	36.7219
4.544	36.9635
4.52	36.9049
4.497	36.9941
4.474	37.001
4.45	36.9194
4.428	36.87
4.405	36.8357
4.383	36.7902
4.361	36.6722
4.339	36.6674
4.317	36.4737
4.296	36.2935
4.274	36.0401
4.253	35.8674
4.233	35.4804
4.212	35.3212
4.191	35.1046
4.171	34.7299
4.151	34.5595
4.131	34.2918
4.112	33.9665
4.092	33.4556
4.073	33.0141
4.054	32.6663
4.035	32.4244
4.016	32.5621
3.998	32.8815
3.979	33.3514
3.961	33.8189
3.943	34.2854
3.925	34.5392
3.907	34.8185
3.89	34.9857
3.872	35.0265
3.855	35.2826
3.838	35.3978
3.821	35.7013
3.804	36.0711
3.787	36.3715
3.771	36.8803
3.754	37.3511
3.738	37.9801
3.722	38.7312
3.706	39.3239
3.69	39.8142
3.675	40.2581
3.659	40.3838
3.644	40.5185
3.628	40.4973
3.613	40.1871
3.598	40.0064
3.583	39.8558
3.568	39.6489
3.554	39.6166
3.539	39.5803
3.525	39.6332
3.51	39.6833
3.496	40.0283
3.482	40.2395
3.468	40.462
3.454	40.8108
3.441	41.2193
3.427	41.6305
3.413	42.0741
3.4	42.7765
3.387	43.2082
3.373	43.8528
3.36	44.5381
3.347	45.3312
3.334	46.041
3.321	46.7035
3.309	47.4157
3.296	48.0133
3.284	48.6702
3.271	49.3486
3.259	49.8931
3.247	50.3399
3.234	50.9569
3.222	51.5489
3.21	52.0464
3.199	52.5705
3.187	53.121
3.175	53.5466
3.163	53.9819
3.152	54.6196
3.14	55.0091
3.129	55.4291
3.118	55.8628
3.107	56.254
3.095	56.4456
3.084	56.9292
3.073	57.3039
3.063	57.6403
3.052	57.8521
3.041	58.2067
3.03	58.2443
3.02	58.4716
3.009	58.4265
2.999	58.7213
2.988	58.9842
2.978	59.0231
2.968	59.3796
2.958	59.6102
2.948	59.8287
2.938	59.8345
2.928	59.9816
2.918	60.0054
2.908	60.1656
2.898	60.1537
2.888	60.3944
2.879	60.5723
2.869	60.7304
2.86	60.706
2.85	60.989
2.841	61.166
2.832	60.8522
2.822	60.5472
2.813	60.2531
2.804	60.5921
2.795	59.4938
2.786	58.9436
2.777	55.3799
2.768	53.3769
2.759	47.2997
2.751	48.6431
2.742	55.7136
2.733	50.7169
2.725	58.6631
2.716	63.052
2.707	67.8637
2.699	70.0878
2.691	72.035
2.682	73.115
2.674	73.7426
2.666	76.4743
2.658	74.0258
2.649	73.9842
2.641	74.4282
2.633	75.0786
2.625	75.3203
2.617	76.6033
2.609	75.9005
2.602	75.9565
2.594	78.4464
2.586	76.5509
2.578	76.221
2.571	76.7093
2.563	77.5198
2.555	76.2162
2.548	76.5984
2.54	76.392
2.533	76.7679
2.525	76.824
2.518	76.879
2.511	76.9067
2.504	77.13
2.496	77.0612
2.489	77.2059
2.482	77.3744
2.475	77.5901
2.468	77.6185
2.461	77.8232
2.454	77.8593
2.447	77.9793
2.44	78.2361
2.433	78.1587
2.426	78.3542
2.419	78.3973
2.413	78.3715
2.406	78.5055
2.399	78.6006
2.393	78.69
2.386	78.6138
2.379	78.7535
2.373	78.7798
2.366	78.6885
2.36	78.9178
2.354	78.8574
2.347	79.0488
2.341	79.1797
2.334	79.2226
2.328	79.4129
2.322	79.5814
2.316	79.6668
2.309	79.707
2.303	79.8843
2.297	79.9872
2.291	80.0581
2.285	80.1891
2.279	80.0941
2.273	80.0422
2.267	80.2616
2.261	80.2737
2.255	80.487
2.249	80.507
2.244	80.6916
2.238	80.5821
2.232	80.8151
2.226	80.6015
2.22	80.8017
2.215	81.0221
2.209	81.2397
2.204	81.0296
2.198	81.1036
2.192	81.1517
2.187	81.3401
2.181	81.5709
2.176	81.8147
2.17	81.6797
2.165	81.7218
2.159	82.0153
2.154	82.127
2.149	81.9785
2.143	82.2467
2.138	82.4127
2.133	82.5564
2.128	82.4913
2.122	82.8743
2.117	82.6111
2.112	82.9162
2.107	82.8218
2.102	82.9278
2.097	82.9672
2.091	82.9086
2.086	83.1899
2.081	83.1986
2.076	83.2828
2.071	83.5602
2.066	83.5983
2.062	82.9711
2.057	83.2372
2.052	83.2245
2.047	83.237
2.042	83.4889
2.037	83.351
2.032	83.3982
2.028	83.1815
2.023	83.6192
2.018	83.7591
2.014	83.6346
2.009	84.0832
2.004	83.7334
