Name: Galena PbS
Type: Mineral
Class: Sulfides
Particle Size: 0-45um
Sample No.: S-7A
Owner: JPL
Origin: USA, Kansas, Cherokee County, Galena.
Measurement: Hemispherical reflectance
X Units: Wavelength (micrometers)
Y Units: Reflectance (percent)
wavelength	value
2.5	7.60526
2.494	7.62151
2.488	7.65175
2.482	7.49339
2.476	7.4212
2.47	7.48498
2.464	7.51915
2.458	7.47753
2.452	7.39308
2.446	7.54465
2.44	7.45382
2.434	7.54584
2.428	7.47463
2.422	7.49077
2.416	7.51512
2.41	7.44927
2.404	7.481
2.398	7.48267
2.392	7.44708
2.386	7.50104
2.38	7.49269
2.374	7.48963
2.368	7.51801
2.362	7.51287
2.356	7.49765
2.35	7.53096
2.344	7.48333
2.338	7.42604
2.332	7.5072
2.326	7.45959
2.32	7.4898
2.314	7.49605
2.308	7.42399
2.302	7.48301
2.296	7.45371
2.29	7.50935
2.284	7.41402
2.278	7.49632
2.272	7.49018
2.266	7.4878
2.26	7.45917
2.254	7.40509
2.248	7.40661
2.242	7.44326
2.236	7.44104
2.23	7.416
2.224	7.46004
2.218	7.43879
2.212	7.56904
2.206	7.55041
2.2	7.48234
2.194	7.45929
2.188	7.60588
2.182	7.54195
2.176	7.54353
2.17	7.59438
2.164	7.58906
2.158	7.62962
2.152	7.59551
2.146	7.60528
2.14	7.67263
2.134	7.62211
2.128	7.63757
2.122	7.54499
2.116	7.59929
2.11	7.52108
2.104	7.5301
2.098	7.49537
2.092	7.57636
2.086	7.53094
2.08	7.6136
2.074	7.56524
2.068	7.60153
2.062	7.57667
2.056	7.60379
2.05	7.60183
2.044	7.61605
2.038	7.62112
2.032	7.68695
2.026	7.67901
2.02	7.67663
2.014	7.64376
2.008	7.64169
2.002	7.64782
1.996	7.68518
1.99	7.679
1.984	7.6789
1.978	7.5868
1.972	7.67647
1.966	7.61167
1.96	7.63909
1.954	7.60942
1.948	7.61921
1.942	7.6221
1.936	7.63838
1.93	7.71422
1.924	7.63026
1.918	7.62025
1.912	7.71194
1.906	7.67757
1.9	7.65562
1.894	7.76939
1.888	7.72294
1.882	7.75347
1.876	7.65581
1.87	7.64192
1.864	7.72381
1.858	7.76195
1.852	7.72362
1.846	7.72756
1.84	7.74418
1.834	7.73178
1.828	7.7394
1.822	7.82163
1.816	7.74768
1.81	7.75339
1.804	7.74772
1.798	7.7326
1.792	7.76732
1.786	7.7433
1.78	7.75655
1.774	7.72477
1.768	7.7621
1.762	7.70401
1.756	7.75037
1.75	7.70743
1.744	7.73397
1.738	7.87496
1.732	7.75782
1.726	7.77165
1.72	7.78092
1.714	7.78171
1.708	7.76606
1.702	7.72927
1.696	7.75072
1.69	7.71579
1.684	7.78942
1.678	7.79969
1.672	7.78457
1.666	7.76862
1.66	7.76882
1.654	7.83283
1.648	7.74911
1.642	7.8634
1.636	7.92015
1.63	7.84245
1.624	7.85025
1.618	7.82367
1.612	7.83171
1.606	7.87688
1.6	7.9378
1.594	7.75805
1.588	7.83173
1.582	7.86505
1.576	7.86204
1.57	7.92112
1.564	7.893
1.558	7.92268
1.552	7.88904
1.546	7.84954
1.54	7.93249
1.534	7.92535
1.528	7.87257
1.522	7.96432
1.516	7.92798
1.51	7.91932
1.504	7.93046
1.498	7.94643
1.492	7.93959
1.486	7.97701
1.48	7.93929
1.474	7.9309
1.468	7.9547
1.462	7.98195
1.456	7.9878
1.45	7.93557
1.444	7.97966
1.438	7.96251
1.432	7.9846
1.426	8.05042
1.42	8.04866
1.414	7.951
1.408	8.03753
1.402	8.05161
1.396	8.08683
1.39	8.18249
1.384	8.11748
1.378	8.12609
1.372	8.14247
1.366	8.11125
1.36	8.1656
1.354	8.11523
1.348	8.15344
1.342	8.14274
1.336	8.08414
1.33	8.15958
1.324	8.08461
1.318	8.19935
1.312	8.13537
1.306	8.11924
1.3	8.16644
1.294	8.16535
1.288	8.14085
1.282	8.1919
1.276	8.16984
1.27	8.2133
1.264	8.15452
1.258	8.22167
1.252	8.15671
1.246	8.22315
1.24	8.15538
1.234	8.209
1.228	8.22662
1.222	8.22381
1.216	8.26664
1.21	8.24067
1.204	8.26848
1.198	8.26288
1.192	8.24409
1.186	8.29867
1.18	8.27923
1.174	8.28084
1.168	8.29386
1.162	8.34489
1.156	8.30801
1.15	8.27649
1.144	8.36241
1.138	8.34709
1.132	8.39612
1.126	8.38388
1.12	8.44479
1.114	8.35702
1.108	8.4119
1.102	8.33732
1.096	8.36765
1.09	8.38688
1.084	8.4406
1.078	8.44522
1.072	8.41121
1.066	8.44082
1.06	8.52174
1.054	8.40818
1.048	8.54033
1.042	8.48814
1.036	8.54577
1.03	8.57742
1.024	8.5257
1.018	8.50615
1.012	8.58103
1.006	8.57962
1	8.62637
0.994	8.60351
0.988	8.62133
0.982	8.63005
0.976	8.63218
0.97	8.65944
0.964	8.66702
0.958	8.71793
0.952	8.74416
0.946	8.79901
0.94	8.77406
0.934	8.73262
0.928	8.77436
0.922	8.78767
0.916	8.79812
0.91	8.75257
0.904	8.81151
0.898	8.81176
0.892	8.80858
0.886	8.85459
0.88	8.82673
0.874	8.8459
0.868	8.8519
0.862	8.87223
0.856	9.05841
0.85	9.0833
0.844	9.10978
0.838	9.12491
0.832	9.13845
0.826	9.1568
0.82	9.17034
0.814	9.21364
0.808	9.22025
0.802	9.24119
0.796	9.24873
0.79	9.27784
0.784	9.29079
0.778	9.31286
0.772	9.32418
0.766	9.34365
0.76	9.37811
0.754	9.39076
0.748	9.41175
0.742	9.41821
0.736	9.44263
0.73	9.47082
0.724	9.49771
0.718	9.51971
0.712	9.54488
0.706	9.56959
0.7	9.59975
0.694	9.62071
0.688	9.64067
0.682	9.6611
0.676	9.67691
0.67	9.6878
0.664	9.68209
0.658	9.68117
0.652	9.67084
0.646	9.65642
0.64	9.63692
0.634	9.61526
0.628	9.59483
0.622	9.57476
0.616	9.5593
0.61	9.54658
0.604	9.54055
0.598	9.54505
0.592	9.55307
0.586	9.56475
0.58	9.57842
0.574	9.59897
0.568	9.62451
0.562	9.65775
0.556	9.70262
0.55	9.74077
0.544	9.79362
0.538	9.84793
0.532	9.9052
0.526	9.97626
0.52	10.0517
0.514	10.143
0.508	10.2412
0.502	10.3533
0.496	10.4674
0.49	10.5785
0.484	10.703
0.478	10.7938
0.472	10.9023
0.466	11.0177
0.46	11.1386
0.454	11.2726
0.448	11.409
0.442	11.5511
0.436	11.6934
0.43	11.8442
0.424	12.0032
0.418	12.1717
0.412	12.3486
0.406	12.531
0.4	12.7317
