Name: Bornite Cu_5FeS_4
Type: Mineral
Class: Sulfides
Particle Size: 125-500um
Sample No.: S-9A
Owner: JPL
Origin: USA, Arizona, Pinal County, Superior, Magma Mine.
Measurement: Hemispherical reflectance
X Units: Wavelength (micrometers)
Y Units: Reflectance (percent)
wavelength	value
2.5	15.4645
2.494	15.2116
2.488	15.391
2.482	15.2792
2.476	15.23
2.47	15.3517
2.464	15.2556
2.458	15.3589
2.452	15.3139
2.446	15.3442
2.44	15.3295
2.434	15.2706
2.428	15.2629
2.422	15.2049
2.416	15.3034
2.41	15.2658
2.404	15.2352
2.398	15.3307
2.392	15.2867
2.386	15.2561
2.38	15.2791
2.374	15.3168
2.368	15.3267
2.362	15.3144
2.356	15.2861
2.35	15.3331
2.344	15.284
2.338	15.2916
2.332	15.2452
2.326	15.2098
2.32	15.2593
2.314	15.2237
2.308	15.2834
2.302	15.1873
2.296	15.2216
2.29	15.2603
2.284	15.283
2.278	15.19
2.272	15.2002
2.266	15.1948
2.26	15.1989
2.254	15.2568
2.248	15.2287
2.242	15.1559
2.236	15.1929
2.23	15.1702
2.224	15.0996
2.218	15.1801
2.212	15.3149
2.206	15.2473
2.2	15.23
2.194	15.2316
2.188	15.2902
2.182	15.2536
2.176	15.3207
2.17	15.2514
2.164	15.2814
2.158	15.3324
2.152	15.3534
2.146	15.3306
2.14	15.3952
2.134	15.3115
2.128	15.2919
2.122	15.2729
2.116	15.1726
2.11	15.146
2.104	15.1215
2.098	15.048
2.092	15.1042
2.086	15.1216
2.08	15.1204
2.074	15.122
2.068	15.1569
2.062	15.0838
2.056	15.159
2.05	15.1407
2.044	15.1679
2.038	15.0967
2.032	15.1138
2.026	15.1207
2.02	15.15
2.014	15.1265
2.008	15.1308
2.002	15.1029
1.996	15.1184
1.99	15.0441
1.984	15.0456
1.978	15.0946
1.972	15.0384
1.966	15.0103
1.96	15.0161
1.954	15.1248
1.948	15.1123
1.942	14.986
1.936	15.0433
1.93	14.9812
1.924	14.932
1.918	14.9966
1.912	14.9605
1.906	15.0393
1.9	15.0337
1.894	15.0565
1.888	15.069
1.882	15.061
1.876	15.0568
1.87	15.0285
1.864	15.0285
1.858	15.0301
1.852	15.0152
1.846	14.9452
1.84	15.0154
1.834	14.9837
1.828	14.9626
1.822	14.9217
1.816	14.9732
1.81	14.9426
1.804	14.9415
1.798	14.9757
1.792	14.9519
1.786	14.9282
1.78	14.9178
1.774	14.9452
1.768	14.9089
1.762	14.858
1.756	14.8731
1.75	14.8743
1.744	14.8643
1.738	14.8232
1.732	14.859
1.726	14.855
1.72	14.8066
1.714	14.8311
1.708	14.8154
1.702	14.7348
1.696	14.7658
1.69	14.7589
1.684	14.7313
1.678	14.7615
1.672	14.6856
1.666	14.7077
1.66	14.6914
1.654	14.6866
1.648	14.6593
1.642	14.7083
1.636	14.6461
1.63	14.701
1.624	14.6101
1.618	14.6088
1.612	14.6622
1.606	14.6166
1.6	14.5923
1.594	14.5871
1.588	14.6389
1.582	14.5984
1.576	14.6013
1.57	14.5498
1.564	14.5087
1.558	14.5644
1.552	14.5404
1.546	14.5133
1.54	14.4812
1.534	14.4623
1.528	14.4141
1.522	14.4919
1.516	14.4172
1.51	14.4625
1.504	14.399
1.498	14.4401
1.492	14.3979
1.486	14.3732
1.48	14.3992
1.474	14.3458
1.468	14.305
1.462	14.2992
1.456	14.2628
1.45	14.2911
1.444	14.2456
1.438	14.2286
1.432	14.2216
1.426	14.2288
1.42	14.1932
1.414	14.129
1.408	14.1722
1.402	14.2606
1.396	14.2596
1.39	14.183
1.384	14.1243
1.378	14.212
1.372	14.0932
1.366	14.1248
1.36	13.9525
1.354	14.1174
1.348	13.9751
1.342	14.0169
1.336	13.9209
1.33	13.9274
1.324	13.859
1.318	13.8485
1.312	13.8491
1.306	13.8377
1.3	13.7583
1.294	13.7695
1.288	13.69
1.282	13.6256
1.276	13.6673
1.27	13.6854
1.264	13.627
1.258	13.568
1.252	13.5963
1.246	13.5595
1.24	13.5683
1.234	13.5053
1.228	13.4627
1.222	13.4818
1.216	13.4423
1.21	13.4013
1.204	13.3979
1.198	13.324
1.192	13.2352
1.186	13.2528
1.18	13.2993
1.174	13.1789
1.168	13.2268
1.162	13.1305
1.156	13.1312
1.15	13.0592
1.144	13.0549
1.138	13.015
1.132	13.0048
1.126	12.9294
1.12	12.9408
1.114	12.8839
1.108	12.9069
1.102	12.7993
1.096	12.6987
1.09	12.695
1.084	12.6603
1.078	12.5996
1.072	12.6399
1.066	12.5146
1.06	12.404
1.054	12.4133
1.048	12.4605
1.042	12.3219
1.036	12.3024
1.03	12.3715
1.024	12.2199
1.018	12.1685
1.012	12.1217
1.006	12.1508
1	12.088
0.994	11.9976
0.988	11.9471
0.982	11.9077
0.976	11.897
0.97	11.7813
0.964	11.7554
0.958	11.6677
0.952	11.6297
0.946	11.5441
0.94	11.4873
0.934	11.361
0.928	11.3467
0.922	11.273
0.916	11.1886
0.91	11.1251
0.904	11.0966
0.898	11.0052
0.892	10.882
0.886	10.8521
0.88	10.7692
0.874	10.6653
0.868	10.6302
0.862	10.4413
0.856	10.7356
0.85	10.6462
0.844	10.511
0.838	10.4237
0.832	10.2948
0.826	10.1977
0.82	10.0769
0.814	9.96494
0.808	9.86272
0.802	9.73726
0.796	9.6097
0.79	9.47147
0.784	9.34993
0.778	9.21684
0.772	9.08188
0.766	8.95138
0.76	8.82082
0.754	8.69216
0.748	8.56957
0.742	8.43604
0.736	8.30693
0.73	8.17749
0.724	8.04735
0.718	7.92683
0.712	7.79865
0.706	7.67705
0.7	7.55599
0.694	7.43668
0.688	7.32306
0.682	7.21178
0.676	7.10378
0.67	7.00334
0.664	6.90243
0.658	6.80912
0.652	6.7211
0.646	6.63914
0.64	6.56563
0.634	6.49994
0.628	6.44651
0.622	6.39717
0.616	6.3574
0.61	6.32741
0.604	6.30211
0.598	6.29244
0.592	6.28962
0.586	6.29482
0.58	6.31013
0.574	6.33631
0.568	6.37273
0.562	6.42209
0.556	6.48789
0.55	6.56335
0.544	6.6483
0.538	6.74123
0.532	6.84534
0.526	6.95592
0.52	7.07416
0.514	7.19742
0.508	7.32527
0.502	7.45484
0.496	7.59422
0.49	7.73199
0.484	7.87348
0.478	7.98527
0.472	8.1082
0.466	8.2371
0.46	8.37478
0.454	8.52786
0.448	8.68465
0.442	8.86251
0.436	9.03099
0.43	9.19372
0.424	9.36733
0.418	9.5497
0.412	9.72265
0.406	9.88672
0.4	10.0472
