Name: Albite (Feldspar) (K,Na)AlSi_3O_8
Type: Mineral
Class: Silicates
Subclass: Tectosilicates
Particle Size: 45-125um
Sample No.: TS-6A
Owner: JPL
Wavelength Range: VNIR-SWIR
Measurement: Hemispherical reflectance
X Units: Wavelength (micrometers)
Y Units: Reflectance (percent)
wavelength	value
0.4	62.1
0.403	62.53
0.406	63.01
0.409	63.55
0.412	63.77
0.415	63.92
0.418	64.29
0.421	64.67
0.424	64.87
0.427	65.29
0.43	65.68
0.433	65.85
0.436	66.11
0.439	66.59
0.442	66.67
0.445	66.95
0.448	67.41
0.451	67.57
0.454	67.56
0.457	67.89
0.46	68.22
0.463	68.6
0.466	68.45
0.469	68.86
0.472	68.97
0.475	69.01
0.478	69.11
0.481	69.54
0.484	69.61
0.487	69.52
0.49	69.79
0.493	70.02
0.496	70.14
0.499	70.25
0.502	70.6
0.505	70.55
0.508	70.77
0.511	70.84
0.514	71.19
0.517	71.26
0.52	71.23
0.523	71.42
0.526	71.67
0.529	71.59
0.532	71.63
0.535	71.68
0.538	71.87
0.541	71.82
0.544	71.85
0.547	72.08
0.55	72.32
0.553	72.33
0.556	72.24
0.559	72.42
0.562	72.98
0.565	72.79
0.568	72.73
0.571	72.76
0.574	72.56
0.577	72.42
0.58	72.44
0.583	72.5
0.586	72.57
0.589	72.5
0.592	72.64
0.595	72.74
0.598	72.53
0.601	72.65
0.604	72.78
0.607	72.87
0.61	72.62
0.613	72.54
0.616	72.48
0.619	72.66
0.622	72.7
0.625	72.48
0.628	72.54
0.631	72.71
0.634	72.77
0.637	72.62
0.64	72.5
0.643	72.77
0.646	72.69
0.649	72.57
0.652	72.66
0.655	72.79
0.658	72.65
0.661	72.55
0.664	72.71
0.667	72.67
0.67	72.66
0.673	72.86
0.676	72.91
0.679	72.91
0.682	72.79
0.685	73
0.688	73.03
0.691	72.82
0.694	72.93
0.697	73.17
0.7	73.06
0.703	73.09
0.706	73.18
0.709	73.05
0.712	73.16
0.715	73.23
0.718	73.29
0.721	73.17
0.724	73.15
0.727	73.34
0.73	73.41
0.733	73.3
0.736	73.32
0.739	73.33
0.742	73.53
0.745	73.46
0.748	73.44
0.751	73.47
0.754	73.55
0.757	73.7
0.76	73.61
0.763	73.44
0.766	73.65
0.769	73.65
0.772	73.62
0.775	73.69
0.778	73.85
0.781	73.67
0.784	73.73
0.787	73.81
0.79	73.83
0.793	73.79
0.796	73.97
0.799	74.07
0.808	73.66
0.82	73.55
0.832	73.61
0.844	73.6
0.856	73.71
0.868	73.84
0.88	73.88
0.892	73.94
0.904	73.81
0.916	73.84
0.928	73.96
0.94	73.86
0.952	73.68
0.964	73.67
0.976	73.47
0.988	73.36
1	73.36
1.012	73.09
1.024	72.88
1.036	72.58
1.048	72.31
1.06	72.03
1.072	71.71
1.084	71.44
1.096	71.23
1.108	70.82
1.12	70.63
1.132	70.39
1.144	70.06
1.156	69.84
1.168	69.49
1.18	69.29
1.192	69.04
1.204	68.88
1.216	68.71
1.228	68.58
1.24	68.61
1.252	68.63
1.264	68.6
1.276	68.55
1.288	68.63
1.3	68.58
1.312	68.6
1.324	68.71
1.336	68.76
1.348	68.9
1.36	69.03
1.372	69.24
1.384	69.09
1.396	68
1.408	67.48
1.42	68.8
1.432	69.8
1.444	70.37
1.456	70.63
1.468	71
1.48	71.38
1.492	71.82
1.504	72.16
1.516	72.54
1.528	72.76
1.54	73.08
1.552	73.4
1.564	73.62
1.576	73.89
1.588	74.13
1.6	74.35
1.612	74.53
1.624	74.67
1.636	74.9
1.648	75.09
1.66	75.15
1.672	75.23
1.684	75.24
1.696	75.46
1.708	75.54
1.72	75.69
1.732	75.73
1.744	75.59
1.756	75.76
1.768	75.69
1.78	75.68
1.792	75.82
1.804	75.89
1.816	75.87
1.828	75.9
1.84	75.99
1.852	75.95
1.864	75.79
1.876	75.22
1.888	73.89
1.9	72.28
1.912	71.58
1.924	71.96
1.936	72.58
1.948	72.92
1.96	73.32
1.972	73.75
1.984	74.32
1.996	74.68
2.008	75.19
2.02	75.55
2.032	75.96
2.044	76.13
2.056	76.34
2.068	76.48
2.08	76.53
2.092	76.55
2.104	76.73
2.116	76.86
2.128	76.91
2.14	76.65
2.152	76.16
2.164	75.19
2.176	73.87
2.188	72.51
2.2	72.44
2.212	73.21
2.224	74.16
2.236	74.6
2.248	74.76
2.26	74.71
2.272	74.71
2.284	74.46
2.296	73.85
2.308	73.22
2.32	72.75
2.332	72.14
2.344	71.91
2.356	72.04
2.368	72.15
2.38	72.12
2.392	71.86
2.404	71.59
2.416	71.05
2.428	70.61
2.44	70.08
2.452	69.76
2.464	69.54
2.476	69.42
2.488	69.54
2.5	69.65
