Name: Molybdenite MoS_2
Type: Mineral
Class: Sulfides
Particle Size: 45-125um
Sample No.: S-11A
Owner: JPL
Wavelength Range: VNIR-SWIR
Origin: Norway, Arendal, Froland
Measurement: Hemispherical reflectance
X Units: Wavelength (micrometers)
Y Units: Reflectance (percent)
wavelength	value
0.4	17.23
0.403	17.07
0.406	17.17
0.409	17.09
0.412	17.14
0.415	17.04
0.418	17.05
0.421	17.06
0.424	17.09
0.427	17.14
0.43	17.02
0.433	17.21
0.436	17.29
0.439	17.42
0.442	17.58
0.445	17.58
0.448	17.67
0.451	17.67
0.454	17.86
0.457	17.73
0.46	17.77
0.463	17.67
0.466	17.56
0.469	17.43
0.472	17.37
0.475	17.05
0.478	17.19
0.481	17
0.484	16.8
0.487	16.81
0.49	16.65
0.493	16.55
0.496	16.35
0.499	16.18
0.502	16.02
0.505	15.9
0.508	15.84
0.511	15.75
0.514	15.53
0.517	15.42
0.52	15.2
0.523	15.25
0.526	15.19
0.529	15.01
0.532	14.97
0.535	14.77
0.538	14.85
0.541	14.75
0.544	14.67
0.547	14.61
0.55	14.5
0.553	14.58
0.556	14.46
0.559	14.47
0.562	14.43
0.565	14.45
0.568	14.42
0.571	14.38
0.574	14.22
0.577	14.2
0.58	14.23
0.583	14.19
0.586	14.18
0.589	14.1
0.592	14.05
0.595	14.27
0.598	14.47
0.601	14.61
0.604	14.74
0.607	14.87
0.61	15.1
0.613	15.24
0.616	15.24
0.619	15.19
0.622	15.2
0.625	15.24
0.628	15.1
0.631	15.05
0.634	14.87
0.637	14.77
0.64	14.66
0.643	14.64
0.646	14.59
0.649	14.54
0.652	14.48
0.655	14.54
0.658	14.68
0.661	14.86
0.664	15.2
0.667	15.41
0.67	15.69
0.673	16.04
0.676	16.23
0.679	16.36
0.682	16.15
0.685	16.12
0.688	16.2
0.691	16.3
0.694	16.37
0.697	16.35
0.7	16.45
0.703	16.61
0.706	16.88
0.709	16.91
0.712	17.06
0.715	17.17
0.718	17.29
0.721	17.44
0.724	17.44
0.727	17.52
0.73	17.67
0.733	17.71
0.736	17.84
0.739	17.88
0.742	17.97
0.745	18.01
0.748	18.16
0.751	18.23
0.754	18.29
0.757	18.32
0.76	18.41
0.763	18.47
0.766	18.64
0.769	18.71
0.772	18.75
0.775	18.88
0.778	18.92
0.781	19.05
0.784	19.11
0.787	19.18
0.79	19.31
0.793	19.28
0.796	19.44
0.799	19.42
0.808	20.26
0.82	20.58
0.832	21.02
0.844	21.37
0.856	21.88
0.868	22.53
0.88	23.31
0.892	24.14
0.904	24.96
0.916	25.87
0.928	27.03
0.94	28.25
0.952	29.28
0.964	30.28
0.976	30.93
0.988	31.57
1	31.93
1.012	32.38
1.024	32.58
1.036	32.9
1.048	33.15
1.06	33.32
1.072	33.53
1.084	33.72
1.096	33.9
1.108	34.1
1.12	34.35
1.132	34.58
1.144	34.75
1.156	34.96
1.168	35.1
1.18	35.4
1.192	35.62
1.204	35.91
1.216	35.95
1.228	36.15
1.24	36.43
1.252	36.57
1.264	36.76
1.276	36.94
1.288	37.06
1.3	37.26
1.312	37.4
1.324	37.64
1.336	37.75
1.348	37.92
1.36	38.09
1.372	38.31
1.384	38.41
1.396	38.47
1.408	38.48
1.42	38.65
1.432	38.87
1.444	39.03
1.456	39.26
1.468	39.39
1.48	39.55
1.492	39.67
1.504	39.95
1.516	40.07
1.528	40.16
1.54	40.32
1.552	40.41
1.564	40.68
1.576	40.95
1.588	41.03
1.6	41.16
1.612	41.31
1.624	41.57
1.636	41.79
1.648	41.96
1.66	42.09
1.672	42.33
1.684	42.55
1.696	42.73
1.708	43.03
1.72	43.19
1.732	43.31
1.744	43.5
1.756	43.68
1.768	43.92
1.78	44.08
1.792	44.26
1.804	44.42
1.816	44.52
1.828	44.68
1.84	44.87
1.852	44.99
1.864	45.15
1.876	45.13
1.888	45.19
1.9	45.09
1.912	45.12
1.924	45.18
1.936	45.32
1.948	45.39
1.96	45.6
1.972	45.83
1.984	46.07
1.996	46.34
2.008	46.45
2.02	46.61
2.032	46.79
2.044	46.85
2.056	46.94
2.068	47.1
2.08	47.22
2.092	47.35
2.104	47.47
2.116	47.62
2.128	47.69
2.14	47.74
2.152	47.71
2.164	47.7
2.176	47.67
2.188	47.63
2.2	47.63
2.212	47.68
2.224	47.74
2.236	47.82
2.248	48
2.26	48.03
2.272	48.06
2.284	48.02
2.296	48.13
2.308	48.17
2.32	48.21
2.332	48.28
2.344	48.2
2.356	48.28
2.368	48.23
2.38	48.3
2.392	48.29
2.404	48.28
2.416	48.21
2.428	48.25
2.44	48.21
2.452	48.17
2.464	48.08
2.476	48.09
2.488	48.31
2.5	48.59
