Name: Triphylite Li(Mn,Fe)PO_4
Type: Mineral
Class: Phosphates
Particle Size: 125-500um
Sample No.: P-4A
Owner: JPL
Origin: USA, New Hampshire, North Graton, Palermo Mine.
Measurement: Hemispherical reflectance
X Units: Wavelength (micrometers)
Y Units: Reflectance (percent)
wavelength	value
2.5	56.5497
2.494	56.6295
2.488	56.9216
2.482	57.4495
2.476	57.8185
2.47	58.0832
2.464	58.5621
2.458	59.0623
2.452	59.3102
2.446	59.5423
2.44	59.9791
2.434	60.33
2.428	60.7111
2.422	60.9687
2.416	61.2983
2.41	61.4973
2.404	61.7289
2.398	61.9623
2.392	62.2195
2.386	62.5381
2.38	62.7841
2.374	63.0326
2.368	63.3344
2.362	63.5931
2.356	63.896
2.35	64.0685
2.344	64.2795
2.338	64.3996
2.332	64.4966
2.326	64.6375
2.32	64.735
2.314	64.874
2.308	64.9869
2.302	65.0142
2.296	65.0121
2.29	65.0902
2.284	65.0321
2.278	65.0384
2.272	65.062
2.266	64.996
2.26	65.0117
2.254	64.9814
2.248	64.8798
2.242	64.8061
2.236	64.7703
2.23	64.7143
2.224	64.6218
2.218	64.6185
2.212	64.5941
2.206	64.505
2.2	64.4485
2.194	64.2247
2.188	64.1032
2.182	64.0869
2.176	63.8786
2.17	63.7572
2.164	63.6656
2.158	63.3861
2.152	63.2018
2.146	62.7906
2.14	62.4695
2.134	61.9726
2.128	61.5144
2.122	60.9679
2.116	60.3121
2.11	59.6654
2.104	59.0769
2.098	58.4703
2.092	58.0983
2.086	57.6053
2.08	57.1857
2.074	56.6703
2.068	56.1292
2.062	55.623
2.056	55.0695
2.05	54.4905
2.044	53.8769
2.038	53.2374
2.032	52.5532
2.026	51.9233
2.02	51.2193
2.014	50.4446
2.008	49.7006
2.002	48.9584
1.996	48.2057
1.99	47.3338
1.984	46.556
1.978	45.6714
1.972	44.868
1.966	44.0393
1.96	43.1999
1.954	42.4746
1.948	41.5634
1.942	40.8302
1.936	39.9998
1.93	39.3338
1.924	38.5588
1.918	37.7815
1.912	37.1438
1.906	36.4961
1.9	35.7521
1.894	35.2139
1.888	34.6577
1.882	33.9234
1.876	33.24
1.87	32.288
1.864	31.5592
1.858	30.704
1.852	29.8855
1.846	29.0312
1.84	28.2045
1.834	27.3658
1.828	26.5129
1.822	25.773
1.816	24.9687
1.81	24.2115
1.804	23.4245
1.798	22.7269
1.792	22.0296
1.786	21.2471
1.78	20.5451
1.774	19.8591
1.768	19.1707
1.762	18.5662
1.756	17.8827
1.75	17.2627
1.744	16.6524
1.738	16.1061
1.732	15.5554
1.726	14.986
1.72	14.4571
1.714	13.9442
1.708	13.433
1.702	12.9564
1.696	12.5443
1.69	12.0999
1.684	11.6628
1.678	11.2062
1.672	10.8471
1.666	10.5251
1.66	10.2402
1.654	9.86253
1.648	9.53144
1.642	9.26374
1.636	8.94118
1.63	8.5752
1.624	8.29244
1.618	8.15526
1.612	7.85395
1.606	7.71503
1.6	7.44799
1.594	7.24851
1.588	7.04545
1.582	6.87817
1.576	6.66418
1.57	6.5313
1.564	6.43051
1.558	6.21461
1.552	6.12156
1.546	5.94693
1.54	5.78612
1.534	5.68307
1.528	5.60645
1.522	5.5129
1.516	5.41417
1.51	5.32417
1.504	5.24404
1.498	5.18566
1.492	5.12126
1.486	5.08048
1.48	4.98264
1.474	4.94226
1.468	4.87014
1.462	4.80885
1.456	4.79961
1.45	4.8116
1.444	4.75567
1.438	4.67146
1.432	4.64623
1.426	4.6424
1.42	4.6159
1.414	4.60705
1.408	4.59879
1.402	4.61749
1.396	4.61776
1.39	4.62069
1.384	4.63529
1.378	4.55514
1.372	4.61968
1.366	4.71778
1.36	4.56144
1.354	4.63451
1.348	4.59709
1.342	4.64314
1.336	4.63985
1.33	4.66218
1.324	4.70307
1.318	4.72493
1.312	4.75307
1.306	4.7838
1.3	4.85741
1.294	4.89955
1.288	4.89156
1.282	4.92697
1.276	4.87669
1.27	4.98393
1.264	4.99517
1.258	5.01956
1.252	5.07321
1.246	5.12202
1.24	5.079
1.234	5.09143
1.228	5.14114
1.222	5.13656
1.216	5.09814
1.21	5.11142
1.204	5.06831
1.198	5.07563
1.192	5.00999
1.186	5.01381
1.18	4.99144
1.174	4.88814
1.168	4.8523
1.162	4.81254
1.156	4.71857
1.15	4.63803
1.144	4.56858
1.138	4.44957
1.132	4.46905
1.126	4.42298
1.12	4.31366
1.114	4.29185
1.108	4.22188
1.102	4.1855
1.096	4.17509
1.09	4.12633
1.084	4.05117
1.078	4.1074
1.072	4.05611
1.066	4.05517
1.06	4.18005
1.054	4.09382
1.048	4.14626
1.042	4.20022
1.036	4.26007
1.03	4.1949
1.024	4.30911
1.018	4.34769
1.012	4.41994
1.006	4.54487
1	4.54516
0.994	4.73271
0.988	4.7453
0.982	4.9443
0.976	5.09764
0.97	5.23848
0.964	5.503
0.958	5.69411
0.952	5.91867
0.946	6.29012
0.94	6.55815
0.934	6.93419
0.928	7.35949
0.922	7.836
0.916	8.38795
0.91	9.03298
0.904	9.71302
0.898	10.5426
0.892	11.4673
0.886	12.4994
0.88	13.6008
0.874	14.8523
0.868	16.1844
0.862	17.6758
0.856	19.772
0.85	21.6321
0.844	23.631
0.838	25.7129
0.832	27.7801
0.826	29.9094
0.82	31.9865
0.814	34.0174
0.808	35.9221
0.802	37.6077
0.796	39.1089
0.79	40.2629
0.784	41.1766
0.778	41.7264
0.772	41.8831
0.766	41.7864
0.76	41.3555
0.754	40.7552
0.748	40.0586
0.742	39.3415
0.736	38.7119
0.73	38.222
0.724	37.9212
0.718	37.7736
0.712	37.8462
0.706	38.1014
0.7	38.519
0.694	39.0783
0.688	39.7735
0.682	40.5698
0.676	41.4602
0.67	42.497
0.664	43.5644
0.658	44.5696
0.652	45.3347
0.646	45.5004
0.64	44.6617
0.634	42.4529
0.628	38.9664
0.622	34.9938
0.616	31.5873
0.61	29.4151
0.604	28.6435
0.598	29.0053
0.592	29.9533
0.586	30.9091
0.58	31.5005
0.574	31.6889
0.568	31.7349
0.562	32.0034
0.556	32.7116
0.55	33.8398
0.544	35.0362
0.538	36.0446
0.532	36.5248
0.526	36.3295
0.52	35.8485
0.514	35.4426
0.508	34.6861
0.502	30.9773
0.496	27.7984
0.49	30.6448
0.484	33.6815
0.478	31.9651
0.472	23.1532
0.466	24.2091
0.46	24.7676
0.454	24.9202
0.448	26.5981
0.442	28.1697
0.436	30.3153
0.43	31.1984
0.424	31.0846
0.418	30.8525
0.412	26.6829
0.406	21.557
0.4	25.4401
