Name: Spodumene LiAlS_2O_6
Type: Mineral
Class: Silicates
Subclass: Inosilicates
Particle Size: 0-45um
Sample No.: IN-13A
Owner: JPL
Wavelength Range: VNIR-SWIR
Origin: Brazil, Minas Gerais
Measurement: Hemispherical reflectance
X Units: Wavelength (micrometers)
Y Units: Reflectance (percent)
wavelength	value
0.4	67.11
0.403	67.4
0.406	67.59
0.409	67.77
0.412	68.05
0.415	68.15
0.418	68.37
0.421	68.59
0.424	68.85
0.427	69.1
0.43	69.2
0.433	69.49
0.436	69.67
0.439	70
0.442	70.22
0.445	70.33
0.448	70.59
0.451	70.62
0.454	70.82
0.457	71.04
0.46	71.08
0.463	71.13
0.466	71.26
0.469	71.45
0.472	71.54
0.475	71.75
0.478	71.87
0.481	72.19
0.484	72.15
0.487	72.35
0.49	72.47
0.493	72.52
0.496	72.79
0.499	72.81
0.502	73.01
0.505	73.15
0.508	73.2
0.511	73.43
0.514	73.36
0.517	73.45
0.52	73.65
0.523	73.91
0.526	73.99
0.529	74.08
0.532	74
0.535	74.26
0.538	74.35
0.541	74.54
0.544	74.6
0.547	74.84
0.55	74.97
0.553	75.3
0.556	75.39
0.559	75.51
0.562	76.17
0.565	76.17
0.568	76.31
0.571	76.47
0.574	76.39
0.577	76.58
0.58	76.64
0.583	76.84
0.586	76.92
0.589	77.11
0.592	77.24
0.595	77.28
0.598	77.33
0.601	77.64
0.604	77.63
0.607	77.64
0.61	77.76
0.613	77.78
0.616	77.88
0.619	77.91
0.622	77.79
0.625	77.99
0.628	77.99
0.631	78.02
0.634	78
0.637	78.02
0.64	78.05
0.643	78.26
0.646	78.29
0.649	78.4
0.652	78.39
0.655	78.43
0.658	78.44
0.661	78.69
0.664	78.56
0.667	78.69
0.67	78.69
0.673	78.69
0.676	78.69
0.679	78.64
0.682	78.82
0.685	78.92
0.688	78.99
0.691	79.03
0.694	78.98
0.697	79.07
0.7	79.07
0.703	79.15
0.706	79.17
0.709	79.37
0.712	79.31
0.715	79.3
0.718	79.37
0.721	79.39
0.724	79.51
0.727	79.35
0.73	79.33
0.733	79.4
0.736	79.43
0.739	79.47
0.742	79.5
0.745	79.44
0.748	79.48
0.751	79.58
0.754	79.48
0.757	79.44
0.76	79.47
0.763	79.54
0.766	79.59
0.769	79.66
0.772	79.63
0.775	79.64
0.778	79.71
0.781	79.71
0.784	79.82
0.787	79.64
0.79	79.7
0.793	79.78
0.796	79.65
0.799	79.66
0.808	79.77
0.82	79.73
0.832	79.76
0.844	79.84
0.856	79.8
0.868	79.9
0.88	79.95
0.892	79.99
0.904	79.97
0.916	79.92
0.928	79.97
0.94	80.08
0.952	80.14
0.964	80.23
0.976	80.16
0.988	80.11
1	80.21
1.012	80.29
1.024	80.26
1.036	80.33
1.048	80.35
1.06	80.26
1.072	80.36
1.084	80.38
1.096	80.44
1.108	80.44
1.12	80.59
1.132	80.67
1.144	80.59
1.156	80.59
1.168	80.59
1.18	80.48
1.192	80.5
1.204	80.59
1.216	80.57
1.228	80.52
1.24	80.51
1.252	80.47
1.264	80.54
1.276	80.51
1.288	80.63
1.3	80.57
1.312	80.49
1.324	80.48
1.336	80.44
1.348	80.49
1.36	80.41
1.372	80.35
1.384	80.09
1.396	80.12
1.408	79.94
1.42	80.23
1.432	80.34
1.444	80.37
1.456	80.5
1.468	80.5
1.48	80.57
1.492	80.54
1.504	80.62
1.516	80.66
1.528	80.59
1.54	80.54
1.552	80.67
1.564	80.66
1.576	80.76
1.588	80.77
1.6	80.79
1.612	80.61
1.624	80.63
1.636	80.7
1.648	80.7
1.66	80.75
1.672	80.84
1.684	80.63
1.696	80.69
1.708	80.72
1.72	80.77
1.732	80.68
1.744	80.62
1.756	80.55
1.768	80.57
1.78	80.6
1.792	80.59
1.804	80.67
1.816	80.6
1.828	80.52
1.84	80.43
1.852	80.5
1.864	80.49
1.876	80.27
1.888	80.1
1.9	79.76
1.912	79.69
1.924	79.68
1.936	79.74
1.948	79.85
1.96	79.98
1.972	80.01
1.984	80.15
1.996	80.32
2.008	80.38
2.02	80.48
2.032	80.49
2.044	80.5
2.056	80.5
2.068	80.55
2.08	80.61
2.092	80.65
2.104	80.75
2.116	80.85
2.128	80.8
2.14	80.56
2.152	80.26
2.164	80.11
2.176	79.88
2.188	79.66
2.2	79.37
2.212	79.54
2.224	79.86
2.236	80.03
2.248	80.05
2.26	80.07
2.272	80.05
2.284	80.06
2.296	80.02
2.308	79.92
2.32	79.97
2.332	80.06
2.344	80.04
2.356	79.89
2.368	79.75
2.38	79.7
2.392	79.55
2.404	79.58
2.416	79.5
2.428	79.33
2.44	79.13
2.452	79.04
2.464	78.85
2.476	78.89
2.488	79.03
2.5	79.39
