Name: Quartz Monzonite Porphyry
Type: Rock
Class: Igneous
Subclass: Intermediate
Particle Size: Solid surface
Sample No.: Ward25.txt
Owner: JPL
Origin: Ward's Collection of American Rocks.  Sample locality - Garfield, Chaffee County, Colorado.
Description: A gray pseudo-porphyritic rock.  Phenocrysts of pink feldspar
Measurement: Hemispherical reflectance
X Units: Wavelength (micrometers)
Y Units: Reflectance (percent)
wavelength	value
15.3871	4.96012
15.118	3.86325
14.8581	3.4185
14.6069	4.34624
14.3642	4.29606
14.1293	3.82146
13.9021	4.47017
13.682	4.89162
13.4687	4.81031
13.2621	5.07233
13.0616	5.44639
12.8672	6.57283
12.6784	5.85704
12.4951	6.39076
12.317	3.59721
12.1439	4.01364
11.9757	4.65756
11.812	5.25258
11.6527	5.68357
11.4977	6.16643
11.3468	6.55564
11.1997	7.11343
11.0564	7.57818
10.9168	8.06055
10.7806	8.52457
10.6478	9.35153
10.5182	9.99619
10.3917	10.7775
10.2683	12.1502
10.1477	13.7716
10.0299	15.132
9.9148	16.5081
9.8024	16.9237
9.6925	18.2734
9.585	19.3475
9.4798	19.8056
9.377	21.2714
9.2763	22.7511
9.1778	22.0856
9.0814	21.5074
8.987	21.1862
8.8945	21.3969
8.8039	21.8863
8.7151	21.4512
8.6281	18.0588
8.5428	21.8357
8.4592	22.0899
8.3772	21.4097
8.2967	20.155
8.2179	17.7933
8.1404	13.8243
8.0645	9.07124
7.9899	6.17206
7.9167	3.89601
7.8449	2.63419
7.7743	2.1237
7.705	1.75713
7.6369	1.56545
7.57	1.36867
7.5043	1.29095
7.4397	1.28263
7.3762	1.30567
7.3138	1.32177
7.2524	1.39207
7.1921	1.57777
7.1327	1.69208
7.0743	1.81119
7.0169	1.71821
6.9604	1.70497
6.9047	1.81955
6.85	1.83586
6.7962	2.02716
6.7431	2.01042
6.6909	2.07757
6.6395	2.22072
6.5889	2.18587
6.539	2.32401
6.49	2.44858
6.4416	2.48654
6.3939	2.43699
6.347	2.46662
6.3007	2.38641
6.2551	2.52354
6.2101	2.4547
6.1658	2.47897
6.1222	2.60925
6.0791	2.63069
6.0366	2.6493
5.9948	2.48258
5.9535	2.56219
5.9127	2.64397
5.8726	2.69602
5.8329	2.81614
5.7938	2.83389
5.7552	2.94731
5.7172	2.97019
5.6796	3.10303
5.6425	3.03293
5.6059	3.10342
5.5698	3.06176
5.5341	3.32904
5.4989	3.30116
5.4641	3.43707
5.4298	3.57222
5.3959	3.5313
5.3624	3.52709
5.3294	3.59379
5.2967	3.62015
5.2644	3.69462
5.2326	3.88182
5.2011	4.08956
5.17	4.24497
5.1392	4.38355
5.1088	4.40297
5.0788	4.37208
5.0491	4.46261
5.0198	4.62047
4.9908	4.6748
4.9622	4.90918
4.9338	5.12799
4.9058	5.36944
4.8781	5.58113
4.8508	5.92541
4.8237	6.25747
4.7969	6.24931
4.7704	6.31894
4.7443	6.47495
4.7184	6.78123
4.6927	6.71613
4.6674	6.87246
4.6423	7.2021
4.6175	7.39674
4.593	7.78666
4.5687	8.10661
4.5447	8.28749
4.5209	8.44792
4.4974	8.53327
4.4741	8.56907
4.451	8.8637
4.4282	9.30912
4.4057	9.537
4.3833	9.93142
4.3612	10.5052
4.3393	10.9316
4.3176	11.1069
4.2962	11.3345
4.2749	11.6736
4.2539	12.0103
4.233	12.0292
4.2124	12.5062
4.192	12.7127
4.1717	12.9877
4.1517	13.2728
4.1319	13.4811
4.1122	13.7648
4.0927	13.9288
4.0734	14.1866
4.0543	14.2774
4.0354	14.5342
4.0166	14.5193
3.9981	14.5447
3.9796	14.6952
3.9614	14.8873
3.9433	15.0964
3.9254	15.0827
3.9077	15.2036
3.8901	15.1679
3.8726	15.4706
3.8554	15.3445
3.8382	15.3028
3.8213	15.5963
3.8045	15.5213
3.7878	15.3734
3.7713	15.3319
3.7549	15.3506
3.7386	15.321
3.7225	15.1917
3.7066	15.1714
3.6907	14.9871
3.675	15.4349
3.6595	15.0292
3.644	15.1582
3.6287	15.0132
3.6136	14.7616
3.5985	14.5168
3.5836	14.4712
3.5688	14.1575
3.5541	13.9733
3.5396	13.5275
3.5251	13.1533
3.5108	12.8973
3.4966	12.8187
3.4825	12.3727
3.4685	12.5527
3.4547	12.1826
3.4409	11.7651
3.4273	11.6101
3.4137	11.2454
3.4003	11.0475
3.387	10.9521
3.3738	10.3529
3.3606	10.5301
3.3476	10.173
3.3347	10.2733
3.3219	9.7949
3.3092	9.97591
3.2965	9.6955
3.284	9.14985
3.2716	8.82768
3.2593	8.78232
3.247	8.47435
3.2348	8.38917
3.2228	8.24371
3.2108	7.95521
3.1989	7.95592
3.1871	7.65812
3.1754	7.87922
3.1638	7.55429
3.1523	7.08336
3.1408	7.51201
3.1294	6.69044
3.1181	6.77273
3.1069	7.06504
3.0958	6.80255
3.0848	6.54561
3.0738	6.29489
3.0629	6.42787
3.0521	6.31365
3.0413	6.35565
3.0307	6.70458
3.0201	6.5862
3.0096	6.17832
2.9991	5.87072
2.9887	6.28902
2.9784	6.06588
2.9682	5.7677
2.9581	6.16112
2.948	5.61055
2.9379	6.61385
2.928	5.9583
2.9181	6.37693
2.9083	5.42664
2.8985	6.22375
2.8888	5.95957
2.8792	6.47984
2.8697	5.62902
2.8602	6.11304
2.8507	6.53667
2.8413	6.74048
2.832	6.53414
2.8228	6.53952
2.8136	6.32374
2.8045	6.51046
2.7954	6.29446
2.7864	6.85452
2.7774	7.24958
2.7685	6.72625
2.7597	6.84943
2.7509	7.2375
2.7422	6.82606
2.7335	8.27482
2.7249	8.20822
2.7163	8.95045
2.7078	9.9213
2.6994	11.2521
2.691	13.7425
2.6826	16.4204
2.6743	17.7253
2.666	18.5107
2.6578	19.4365
2.6497	20.1659
2.6416	20.2747
2.6336	20.7357
2.6256	20.2576
2.6176	20.6763
2.6097	21.188
2.6018	21.0408
2.594	21.6893
2.5863	21.2224
2.5785	21.2568
2.5709	21.1058
2.5633	21.9258
2.5557	21.3263
2.5481	22.3231
2.5406	21.534
2.5332	22.1309
2.5258	21.9172
2.5184	22.1799
2.5111	22.2523
2.5038	22.0353
2.4966	22.7271
2.4894	22.3293
2.4823	22.407
2.4752	22.8357
2.4681	22.7782
2.4611	23.3219
2.4541	23.2936
2.4471	23.0824
2.4402	23.621
2.4333	23.2172
2.4265	23.9239
2.4197	24.7361
2.413	23.6909
2.4063	23.887
2.3996	24.3749
2.3929	24.1052
2.3863	24.5821
2.3798	24.7181
2.3732	24.9332
2.3667	23.8084
2.3603	23.6215
2.3538	23.2019
2.3474	23.3715
2.3411	24.0345
2.3347	23.9796
2.3285	24.4069
2.3222	24.1718
2.316	25.0262
2.3098	25.0774
2.3036	25.8204
2.2975	26.327
2.2914	26.7314
2.2854	26.3195
2.2793	26.7849
2.2733	26.2933
2.2674	26.9152
2.2614	26.3216
2.2555	25.8274
2.2497	26.5965
2.2438	27.0589
2.238	26.2055
2.2322	27.1076
2.2265	27.3863
2.2208	26.5981
2.2151	26.1497
2.2094	26.0987
2.2038	25.8013
2.1982	26.863
2.1926	27.483
2.187	27.0152
2.1815	27.6414
2.176	28.1586
2.1706	28.6504
2.1651	27.4901
2.1597	28.5196
2.1543	29.217
2.149	28.5094
2.1436	29.3222
2.1383	29.2796
2.1331	29.228
2.1278	29.4258
2.1226	29.2047
2.1174	28.9409
2.1122	29.3756
2.1071	28.6054
2.1019	28.9292
2.0968	30.4655
2.0918	29.9089
2.0867	28.8264
2.0817	29.0592
2.0767	30.1452
2.0717	28.3592
2.0667	27.8804
2.0618	29.7941
2.0569	30.0228
2.052	29.3204
2.0472	29.2237
2.0423	27.6412
2.0375	28.2889
2.0327	28.9071
2.028	29.6332
2.0232	29.8742
2.0185	29.4686
2.0138	28.4575
2.0091	28.7997
2.0044	28.704
1.9998	28.8854
