Name: Calcareous Shale
Type: Rock
Class: Sedimentary
Subclass: Shale
Particle Size: Solid surface
Sample No.: Ward51.txt
Owner: JPL
Origin: Ward's Collection of American Rocks.  Sample locality - Ontario County, New York.
Description: A compact light-gray rock.  It does not have thin shaly
Measurement: Hemispherical reflectance
X Units: Wavelength (micrometers)
Y Units: Reflectance (percent)
wavelength	value
2.5	6.70959
2.494	6.42062
2.488	6.64068
2.482	6.64632
2.476	6.50251
2.47	6.56592
2.464	6.75097
2.458	6.6426
2.452	6.60089
2.446	6.7305
2.44	6.71423
2.434	6.81677
2.428	6.69925
2.422	6.76734
2.416	6.86484
2.41	6.80677
2.404	6.88728
2.398	6.86326
2.392	6.96177
2.386	6.96934
2.38	6.90979
2.374	6.90952
2.368	6.95044
2.362	6.94649
2.356	6.91127
2.35	6.89532
2.344	6.96746
2.338	6.95329
2.332	6.97411
2.326	7.09834
2.32	7.07314
2.314	7.12309
2.308	7.11948
2.302	7.13868
2.296	7.19717
2.29	7.18856
2.284	7.12076
2.278	7.17602
2.272	7.17434
2.266	7.17058
2.26	7.17142
2.254	7.23116
2.248	7.1826
2.242	7.17623
2.236	7.25914
2.23	7.20895
2.224	7.27213
2.218	7.21809
2.212	7.30693
2.206	7.29839
2.2	7.21585
2.194	7.21203
2.188	7.32367
2.182	7.3801
2.176	7.45745
2.17	7.40247
2.164	7.48618
2.158	7.58994
2.152	7.57729
2.146	7.56491
2.14	7.56758
2.134	7.55628
2.128	7.57146
2.122	7.56448
2.116	7.52205
2.11	7.50551
2.104	7.52357
2.098	7.52704
2.092	7.53657
2.086	7.54305
2.08	7.54726
2.074	7.58554
2.068	7.63866
2.062	7.62646
2.056	7.67664
2.05	7.67731
2.044	7.69308
2.038	7.69614
2.032	7.6782
2.026	7.68026
2.02	7.7696
2.014	7.71917
2.008	7.72723
2.002	7.73302
1.996	7.76226
1.99	7.77189
1.984	7.6971
1.978	7.74812
1.972	7.74641
1.966	7.69493
1.96	7.78565
1.954	7.70279
1.948	7.71648
1.942	7.70672
1.936	7.69217
1.93	7.66374
1.924	7.71537
1.918	7.6944
1.912	7.7693
1.906	7.71324
1.9	7.76875
1.894	7.87496
1.888	7.95205
1.882	7.89236
1.876	7.95621
1.87	7.99746
1.864	8.00185
1.858	7.99076
1.852	8.00832
1.846	8.11909
1.84	8.09397
1.834	8.16555
1.828	8.19421
1.822	8.14606
1.816	8.2239
1.81	8.21035
1.804	8.2323
1.798	8.22764
1.792	8.28726
1.786	8.2277
1.78	8.25306
1.774	8.2744
1.768	8.25983
1.762	8.2872
1.756	8.28202
1.75	8.2842
1.744	8.34675
1.738	8.34825
1.732	8.38939
1.726	8.42284
1.72	8.45452
1.714	8.3745
1.708	8.38595
1.702	8.4438
1.696	8.45609
1.69	8.42667
1.684	8.36951
1.678	8.47856
1.672	8.50777
1.666	8.54814
1.66	8.55052
1.654	8.59757
1.648	8.60084
1.642	8.65498
1.636	8.65735
1.63	8.58748
1.624	8.57147
1.618	8.61973
1.612	8.58927
1.606	8.65035
1.6	8.61223
1.594	8.72582
1.588	8.6473
1.582	8.69225
1.576	8.68955
1.57	8.66916
1.564	8.67756
1.558	8.69509
1.552	8.68455
1.546	8.73442
1.54	8.74252
1.534	8.72516
1.528	8.74946
1.522	8.76922
1.516	8.81124
1.51	8.76688
1.504	8.80595
1.498	8.81024
1.492	8.76845
1.486	8.78517
1.48	8.83579
1.474	8.81156
1.468	8.77339
1.462	8.78186
1.456	8.8774
1.45	8.84679
1.444	8.84723
1.438	8.83195
1.432	8.80989
1.426	8.80873
1.42	8.79766
1.414	8.80541
1.408	8.74064
1.402	8.87259
1.396	8.95369
1.39	8.9829
1.384	8.83679
1.378	9.00905
1.372	8.97251
1.366	8.98068
1.36	8.96552
1.354	9.04359
1.348	8.96659
1.342	9.05382
1.336	9.11249
1.33	9.06611
1.324	9.08066
1.318	9.08824
1.312	9.05597
1.306	9.0789
1.3	9.08977
1.294	9.12449
1.288	9.15883
1.282	9.17812
1.276	9.11507
1.27	9.17708
1.264	9.23449
1.258	9.20015
1.252	9.22181
1.246	9.17628
1.24	9.20094
1.234	9.2304
1.228	9.1529
1.222	9.27155
1.216	9.27343
1.21	9.24421
1.204	9.27417
1.198	9.25458
1.192	9.25196
1.186	9.37289
1.18	9.34677
1.174	9.3424
1.168	9.37756
1.162	9.38112
1.156	9.39708
1.15	9.39739
1.144	9.38194
1.138	9.41411
1.132	9.38013
1.126	9.46199
1.12	9.44647
1.114	9.39574
1.108	9.53706
1.102	9.47415
1.096	9.48386
1.09	9.57104
1.084	9.54405
1.078	9.56848
1.072	9.63433
1.066	9.49754
1.06	9.60666
1.054	9.63371
1.048	9.64801
1.042	9.66986
1.036	9.67463
1.03	9.63218
1.024	9.71329
1.018	9.7226
1.012	9.74483
1.006	9.72337
1	9.74057
0.994	9.69317
0.988	9.78535
0.982	9.74153
0.976	9.73665
0.97	9.71779
0.964	9.68622
0.958	9.80719
0.952	9.81252
0.946	9.71735
0.94	9.76748
0.934	9.72757
0.928	9.72958
0.922	9.78943
0.916	9.64478
0.91	9.72204
0.904	9.65827
0.898	9.71989
0.892	9.69375
0.886	9.62533
0.88	9.6199
0.874	9.63548
0.868	9.57368
0.862	9.59475
0.856	9.98172
0.85	9.99063
0.844	10.0131
0.838	10.0231
0.832	10.0364
0.826	10.0387
0.82	10.0536
0.814	10.0727
0.808	10.0795
0.802	10.0863
0.796	10.0975
0.79	10.1092
0.784	10.1132
0.778	10.131
0.772	10.1345
0.766	10.1411
0.76	10.1467
0.754	10.1574
0.748	10.1591
0.742	10.1662
0.736	10.1821
0.73	10.1862
0.724	10.1941
0.718	10.2079
0.712	10.2128
0.706	10.2282
0.7	10.2378
0.694	10.2483
0.688	10.261
0.682	10.2715
0.676	10.2825
0.67	10.2945
0.664	10.3101
0.658	10.3183
0.652	10.3269
0.646	10.3386
0.64	10.3468
0.634	10.3658
0.628	10.3748
0.622	10.3837
0.616	10.3972
0.61	10.4062
0.604	10.4177
0.598	10.4331
0.592	10.4435
0.586	10.4531
0.58	10.4615
0.574	10.46
0.568	10.4573
0.562	10.4432
0.556	10.4705
0.55	10.4611
0.544	10.4534
0.538	10.4416
0.532	10.4255
0.526	10.4081
0.52	10.3871
0.514	10.3727
0.508	10.3639
0.502	10.3644
0.496	10.3828
0.49	10.404
0.484	10.4482
0.478	10.3748
0.472	10.3331
0.466	10.304
0.46	10.2784
0.454	10.2672
0.448	10.2579
0.442	10.2546
0.436	10.2168
0.43	10.1806
0.424	10.1485
0.418	10.1179
0.412	10.0885
0.406	10.0561
0.4	10.0178
