Name: Tourmaline Na(Mg_3,Fe_3^2+)Al_6(BO_3)_3Si_6O_18(OH)_4
Type: Mineral
Class: Silicates
Subclass: Cyclosilicates
Particle Size: 125-500um
Sample No.: CS-1A
Owner: JPL
Wavelength Range: VNIR-SWIR
Origin: USA, New York, Overlook
Measurement: Hemispherical reflectance
X Units: Wavelength (micrometers)
Y Units: Reflectance (percent)
wavelength	value
0.4	2.88
0.403	2.81
0.406	2.75
0.409	2.75
0.412	2.57
0.415	2.75
0.418	2.75
0.421	2.69
0.424	2.63
0.427	2.62
0.43	2.69
0.433	2.68
0.436	2.56
0.439	2.5
0.442	2.57
0.445	2.55
0.448	2.55
0.451	2.5
0.454	2.49
0.457	2.59
0.46	2.53
0.463	2.55
0.466	2.38
0.469	2.44
0.472	2.38
0.475	2.43
0.478	2.49
0.481	2.43
0.484	2.37
0.487	2.42
0.49	2.42
0.493	2.36
0.496	2.35
0.499	2.34
0.502	2.42
0.505	2.53
0.508	2.48
0.511	2.37
0.514	2.38
0.517	2.43
0.52	2.43
0.523	2.43
0.526	2.26
0.529	2.38
0.532	2.45
0.535	2.31
0.538	2.31
0.541	2.25
0.544	2.42
0.547	2.41
0.55	2.22
0.553	2.27
0.556	2.15
0.559	2.18
0.562	2.31
0.565	2.31
0.568	2.36
0.571	2.43
0.574	2.3
0.577	2.21
0.58	2.26
0.583	2.27
0.586	2.27
0.589	2.28
0.592	2.15
0.595	2.27
0.598	2.19
0.601	2.32
0.604	2.13
0.607	2.24
0.61	2.31
0.613	2.25
0.616	2.31
0.619	2.18
0.622	2.19
0.625	2.3
0.628	2.13
0.631	2.3
0.634	2.19
0.637	2.19
0.64	2.25
0.643	2.12
0.646	2.19
0.649	2.19
0.652	2.3
0.655	2.19
0.658	2.13
0.661	2.13
0.664	2.13
0.667	2.07
0.67	2.19
0.673	2.14
0.676	2.07
0.679	2.13
0.682	2.18
0.685	2.25
0.688	2.24
0.691	2.19
0.694	2.18
0.697	2.26
0.7	2.12
0.703	2.24
0.706	2.07
0.709	2.12
0.712	2.18
0.715	2.25
0.718	2.12
0.721	2.24
0.724	2.12
0.727	2.07
0.73	2.24
0.733	2.06
0.736	2.13
0.739	2.18
0.742	2.24
0.745	2.3
0.748	2.12
0.751	2.3
0.754	2.24
0.757	2.41
0.76	2.12
0.763	2.35
0.766	2.41
0.769	2.57
0.772	2.69
0.775	2.47
0.778	2.57
0.781	2.52
0.784	2.68
0.787	2.57
0.79	2.62
0.793	2.57
0.796	2.58
0.799	2.48
0.808	2.83
0.82	2.77
0.832	2.84
0.844	2.9
0.856	2.97
0.868	2.85
0.88	2.85
0.892	2.79
0.904	2.91
0.916	2.85
0.928	2.85
0.94	2.73
0.952	2.73
0.964	2.8
0.976	2.85
0.988	2.79
1	2.76
1.012	2.74
1.024	2.73
1.036	2.61
1.048	2.61
1.06	2.73
1.072	2.66
1.084	2.63
1.096	2.61
1.108	2.55
1.12	2.79
1.132	2.68
1.144	2.59
1.156	2.66
1.168	2.66
1.18	2.67
1.192	2.61
1.204	2.55
1.216	2.6
1.228	2.53
1.24	2.74
1.252	2.66
1.264	2.65
1.276	2.6
1.288	2.66
1.3	2.72
1.312	2.76
1.324	2.7
1.336	2.71
1.348	2.64
1.36	2.6
1.372	2.7
1.384	2.72
1.396	2.76
1.408	2.64
1.42	2.76
1.432	2.71
1.444	2.77
1.456	2.65
1.468	2.7
1.48	2.81
1.492	2.76
1.504	2.71
1.516	2.82
1.528	2.81
1.54	2.71
1.552	2.77
1.564	2.76
1.576	2.82
1.588	2.77
1.6	2.76
1.612	2.76
1.624	2.82
1.636	2.83
1.648	2.93
1.66	2.91
1.672	2.86
1.684	2.86
1.696	2.92
1.708	2.98
1.72	3.15
1.732	3.04
1.744	2.99
1.756	3.09
1.768	3.03
1.78	3.22
1.792	3.27
1.804	3.36
1.816	3.38
1.828	3.37
1.84	3.37
1.852	3.41
1.864	3.47
1.876	3.59
1.888	3.74
1.9	3.79
1.912	3.84
1.924	3.91
1.936	4.07
1.948	4.05
1.96	4.08
1.972	4.28
1.984	4.5
1.996	4.55
2.008	4.64
2.02	4.73
2.032	4.78
2.044	4.88
2.056	4.93
2.068	5.19
2.08	5.34
2.092	5.47
2.104	5.65
2.116	5.84
2.128	5.96
2.14	6.07
2.152	6.07
2.164	6.18
2.176	6.15
2.188	6.09
2.2	5.91
2.212	6.03
2.224	6.2
2.236	6.22
2.248	6.58
2.26	7.08
2.272	7.42
2.284	7.4
2.296	7.24
2.308	7.15
2.32	7.05
2.332	6.78
2.344	6.33
2.356	6.07
2.368	6.27
2.38	7.09
2.392	7.74
2.404	8.06
2.416	8.24
2.428	8.27
2.44	8.06
2.452	7.93
2.464	7.83
2.476	7.84
2.488	7.89
2.5	8.06
