Name: Trona Na_3(CO_3)(HCO_3).2H_2O
Type: Mineral
Class: Carbonates
Particle Size: 125-500um
Sample No.: C-4A
Owner: JPL
Wavelength Range: VNIR-SWIR
Origin: USA, Wyoming, Sweetwater County
Measurement: Hemispherical reflectance
X Units: Wavelength (micrometers)
Y Units: Reflectance (percent)
wavelength	value
0.4	43.81
0.403	44.33
0.406	44.67
0.409	45.59
0.412	45.82
0.415	46.61
0.418	47.02
0.421	47.7
0.424	48.16
0.427	48.79
0.43	49.36
0.433	49.76
0.436	50.67
0.439	50.84
0.442	51.59
0.445	52.04
0.448	52.45
0.451	53.02
0.454	53.2
0.457	53.95
0.46	54.18
0.463	54.92
0.466	54.98
0.469	55.62
0.472	56.13
0.475	56.36
0.478	56.88
0.481	56.83
0.484	57.57
0.487	57.75
0.49	58.16
0.493	58.33
0.496	58.74
0.499	59.08
0.502	59.31
0.505	59.83
0.508	59.72
0.511	60.41
0.514	60.35
0.517	60.86
0.52	60.8
0.523	61.15
0.526	61.38
0.529	61.61
0.532	61.89
0.535	61.72
0.538	62.4
0.541	62.23
0.544	62.63
0.547	62.46
0.55	62.86
0.553	62.86
0.556	63.15
0.559	63.83
0.562	63.44
0.565	63.95
0.568	63.89
0.571	64.29
0.574	64.18
0.577	64.64
0.58	64.52
0.583	64.87
0.586	64.99
0.589	65.04
0.592	65.39
0.595	65.44
0.598	65.78
0.601	65.55
0.604	66.13
0.607	65.95
0.61	66.42
0.613	66.24
0.616	66.7
0.619	66.42
0.622	66.99
0.625	66.7
0.628	67.15
0.631	67.1
0.634	67.44
0.637	67.44
0.64	67.38
0.643	67.67
0.646	67.73
0.649	68.08
0.652	67.85
0.655	68.19
0.658	68.08
0.661	68.42
0.664	68.48
0.667	68.65
0.67	68.76
0.673	68.71
0.676	69.1
0.679	68.87
0.682	69.28
0.685	69.1
0.688	69.51
0.691	69.39
0.694	69.62
0.697	69.51
0.7	69.39
0.703	69.51
0.706	69.85
0.709	69.79
0.712	70.2
0.715	70.02
0.718	70.25
0.721	70.42
0.724	70.37
0.727	70.59
0.73	70.14
0.733	70.71
0.736	70.48
0.739	70.82
0.742	70.76
0.745	70.82
0.748	70.88
0.751	70.99
0.754	71.11
0.757	70.94
0.76	71.34
0.763	71.05
0.766	71.28
0.769	71.22
0.772	71.34
0.775	71.45
0.778	71.34
0.781	71.63
0.784	71.34
0.787	71.86
0.79	71.68
0.793	72.08
0.796	71.92
0.799	72.31
0.808	72.42
0.82	72.42
0.832	72.6
0.844	72.77
0.856	72.65
0.868	72.71
0.88	72.77
0.892	72.71
0.904	72.88
0.916	72.88
0.928	72.88
0.94	72.94
0.952	72.94
0.964	72.77
0.976	72.37
0.988	71.86
1	71.68
1.012	71.63
1.024	71.57
1.036	71.92
1.048	72.19
1.06	72.25
1.072	72.37
1.084	72.48
1.096	72.42
1.108	72.19
1.12	72.25
1.132	71.8
1.144	71.4
1.156	70.3
1.168	68.62
1.18	67
1.192	65.62
1.204	64.8
1.216	64.46
1.228	64.18
1.24	64.06
1.252	64.35
1.264	64.78
1.276	64.77
1.288	64.69
1.3	64.16
1.312	63.3
1.324	62.2
1.336	61.38
1.348	60.62
1.36	60.39
1.372	59.94
1.384	59.48
1.396	58.16
1.408	56.41
1.42	53.28
1.432	48.66
1.444	43.53
1.456	39.42
1.468	36
1.48	33.25
1.492	31.14
1.504	29.65
1.516	29.03
1.528	28.68
1.54	29.94
1.552	31.94
1.564	33.02
1.576	33.48
1.588	33.31
1.6	32.63
1.612	31.88
1.624	30.84
1.636	29.69
1.648	28.54
1.66	27.16
1.672	25.73
1.684	24.64
1.696	23.5
1.708	22.46
1.72	21.55
1.732	20.64
1.744	19.9
1.756	19.73
1.768	19.73
1.78	19.61
1.792	19.44
1.804	19.15
1.816	19.13
1.828	18.83
1.84	18.52
1.852	17.89
1.864	16.97
1.876	15.72
1.888	14.24
1.9	12.19
1.912	9.7
1.924	7.42
1.936	5.9
1.948	5.55
1.96	5.83
1.972	6.39
1.984	6.79
1.996	6.78
2.008	6.59
2.02	6.25
2.032	5.85
2.044	5.72
2.056	5.65
2.068	5.92
2.08	6.31
2.092	6.64
2.104	7.02
2.116	7.23
2.128	7.33
2.14	7.49
2.152	7.67
2.164	7.64
2.176	7.55
2.188	7.51
2.2	7.53
2.212	7.37
2.224	7.32
2.236	7.37
2.248	7.48
2.26	7.36
2.272	7.19
2.284	6.96
2.296	6.89
2.308	6.59
2.32	6.2
2.332	5.68
2.344	5.56
2.356	5.22
2.368	4.87
2.38	4.6
2.392	4.26
2.404	4.26
2.416	4.04
2.428	4.1
2.44	4.09
2.452	4.04
2.464	4.09
2.476	3.92
2.488	3.87
2.5	3.7
