Name: Rhodonite (Mn,Ca)SiO_3
Type: Mineral
Class: Silicates
Subclass: Inosilicates
Particle Size: 125-500um
Sample No.: IN-1A
Owner: JPL
Wavelength Range: VNIR-SWIR
Origin: USA, California, Fresno County
Measurement: Hemispherical reflectance
X Units: Wavelength (micrometers)
Y Units: Reflectance (percent)
wavelength	value
0.4	20.38
0.403	18.79
0.406	16.4
0.409	15.17
0.412	15.5
0.415	15.85
0.418	17.63
0.421	18.24
0.424	18.62
0.427	19.07
0.43	19.5
0.433	20.08
0.436	20.49
0.439	21.17
0.442	21.77
0.445	22.19
0.448	22.39
0.451	22.8
0.454	22.88
0.457	23.24
0.46	23.4
0.463	23.99
0.466	24.23
0.469	24.54
0.472	24.94
0.475	25.24
0.478	25.28
0.481	25.44
0.484	25.79
0.487	25.94
0.49	25.91
0.493	26.03
0.496	26.06
0.499	25.88
0.502	25.75
0.505	25.7
0.508	25.53
0.511	25.2
0.514	25.03
0.517	24.67
0.52	24.48
0.523	24.17
0.526	24.02
0.529	23.83
0.532	23.58
0.535	23.41
0.538	23.56
0.541	23.68
0.544	23.79
0.547	24.09
0.55	24.56
0.553	25.14
0.556	25.64
0.559	26.25
0.562	27.44
0.565	28.39
0.568	29.4
0.571	30.1
0.574	30.78
0.577	31.91
0.58	32.82
0.583	33.74
0.586	34.63
0.589	35.77
0.592	36.59
0.595	37.33
0.598	38.13
0.601	39.01
0.604	39.56
0.607	40.31
0.61	40.86
0.613	41.47
0.616	41.69
0.619	42.24
0.622	42.65
0.625	43.02
0.628	43.36
0.631	43.69
0.634	43.91
0.637	44.19
0.64	44.66
0.643	44.92
0.646	45.1
0.649	45.18
0.652	45.63
0.655	45.7
0.658	45.84
0.661	46.1
0.664	46.45
0.667	46.59
0.67	46.77
0.673	47.03
0.676	47.11
0.679	47.28
0.682	47.42
0.685	47.57
0.688	47.63
0.691	47.86
0.694	48.06
0.697	48.12
0.7	48.05
0.703	48.29
0.706	48.34
0.709	48.52
0.712	48.78
0.715	48.66
0.718	48.7
0.721	48.87
0.724	49
0.727	48.97
0.73	49.09
0.733	49.32
0.736	49.26
0.739	49.27
0.742	49.55
0.745	49.4
0.748	49.52
0.751	49.63
0.754	49.6
0.757	49.4
0.76	49.57
0.763	49.54
0.766	49.46
0.769	49.4
0.772	49.45
0.775	49.34
0.778	49.11
0.781	48.93
0.784	48.97
0.787	48.86
0.79	48.54
0.793	48.4
0.796	48.31
0.799	48.11
0.808	46.76
0.82	45.06
0.832	42.73
0.844	40.15
0.856	37.13
0.868	34.15
0.88	31.31
0.892	28.54
0.904	25.77
0.916	23.23
0.928	21.17
0.94	19.24
0.952	17.57
0.964	16.18
0.976	14.89
0.988	14.11
1	13.37
1.012	12.91
1.024	12.6
1.036	12.54
1.048	12.49
1.06	12.68
1.072	12.93
1.084	13.37
1.096	13.96
1.108	14.68
1.12	15.57
1.132	16.4
1.144	17.34
1.156	18.41
1.168	19.45
1.18	20.5
1.192	21.69
1.204	23
1.216	24.41
1.228	25.76
1.24	27.04
1.252	28.34
1.264	29.57
1.276	30.78
1.288	31.91
1.3	32.97
1.312	33.92
1.324	34.74
1.336	35.37
1.348	35.97
1.36	36.37
1.372	36.7
1.384	36.94
1.396	36.94
1.408	37
1.42	37.19
1.432	37.37
1.444	37.42
1.456	37.42
1.468	37.52
1.48	37.58
1.492	37.7
1.504	37.84
1.516	37.89
1.528	38
1.54	38.16
1.552	38.45
1.564	38.56
1.576	38.87
1.588	39.03
1.6	39.24
1.612	39.48
1.624	39.8
1.636	40.17
1.648	40.48
1.66	40.68
1.672	40.99
1.684	41.32
1.696	41.67
1.708	41.91
1.72	42.14
1.732	42.21
1.744	42.33
1.756	42.56
1.768	42.62
1.78	42.74
1.792	42.78
1.804	42.65
1.816	42.6
1.828	42.46
1.84	42.24
1.852	42.01
1.864	41.66
1.876	41.1
1.888	40.36
1.9	39.49
1.912	38.86
1.924	38.66
1.936	38.5
1.948	38.3
1.96	38.22
1.972	38
1.984	37.92
1.996	37.62
2.008	37.49
2.02	37.39
2.032	37.25
2.044	37
2.056	36.71
2.068	36.42
2.08	36.34
2.092	36.2
2.104	36
2.116	35.86
2.128	35.71
2.14	35.43
2.152	35.29
2.164	35.18
2.176	35.01
2.188	34.84
2.2	34.77
2.212	34.63
2.224	34.64
2.236	34.63
2.248	34.49
2.26	34.47
2.272	34.52
2.284	34.56
2.296	34.6
2.308	34.64
2.32	34.91
2.332	34.86
2.344	34.89
2.356	34.96
2.368	35.07
2.38	35.34
2.392	35.52
2.404	35.66
2.416	35.85
2.428	35.99
2.44	36.13
2.452	36.12
2.464	36.22
2.476	36.38
2.488	36.65
2.5	36.77
