Name: Ulexite NaCaB_5O_6(OH)_6.5H_2O
Type: Mineral
Class: Borates
Particle Size: 45-125um
Sample No.: B-3A
Owner: JPL
Wavelength Range: VNIR-SWIR
Origin: USA, California, Kern County, Boron
Measurement: Hemispherical reflectance
X Units: Wavelength (micrometers)
Y Units: Reflectance (percent)
wavelength	value
0.4	86.94
0.403	87.18
0.406	87.87
0.409	88.05
0.412	88.28
0.415	88.92
0.418	88.4
0.421	89.04
0.424	88.92
0.427	89.04
0.43	89.39
0.433	89.04
0.436	89.62
0.439	89.8
0.442	89.86
0.445	89.92
0.448	89.86
0.451	90.2
0.454	90.27
0.457	90.09
0.46	90.51
0.463	90.46
0.466	90.58
0.469	90.24
0.472	90.71
0.475	90.66
0.478	90.79
0.481	91.01
0.484	90.96
0.487	91.32
0.49	91.15
0.493	90.98
0.496	91.45
0.499	91.35
0.502	91.58
0.505	91.52
0.508	91.46
0.511	91.7
0.514	91.35
0.517	91.58
0.52	91.87
0.523	91.82
0.526	92.1
0.529	91.76
0.532	92.33
0.535	92.28
0.538	92.22
0.541	92.69
0.544	92.1
0.547	92.16
0.55	92.1
0.553	91.93
0.556	92.69
0.559	92.1
0.562	92.63
0.565	92.51
0.568	92.92
0.571	92.16
0.574	92.51
0.577	92.39
0.58	92.33
0.583	92.45
0.586	92.22
0.589	92.39
0.592	92.51
0.595	92.22
0.598	92.45
0.601	92.1
0.604	92.98
0.607	92.98
0.61	92.86
0.613	93.39
0.616	93.1
0.619	93.45
0.622	93.27
0.625	92.86
0.628	93.16
0.631	92.74
0.634	93.27
0.637	93.1
0.64	92.69
0.643	93.33
0.646	93.1
0.649	93.27
0.652	93.39
0.655	92.98
0.658	93.27
0.661	93.21
0.664	93.45
0.667	93.51
0.67	92.74
0.673	93.1
0.676	93.04
0.679	93.21
0.682	93.39
0.685	93.16
0.688	93.27
0.691	93.16
0.694	93.21
0.697	93.91
0.7	92.92
0.703	93.1
0.706	93.21
0.709	92.92
0.712	93.33
0.715	93.1
0.718	92.74
0.721	93.21
0.724	92.57
0.727	92.98
0.73	93.16
0.733	92.63
0.736	93.04
0.739	92.28
0.742	92.63
0.745	92.51
0.748	92.16
0.751	92.39
0.754	92.16
0.757	92.22
0.76	92.33
0.763	91.93
0.766	92.51
0.769	92.16
0.772	92.1
0.775	92.57
0.778	92.16
0.781	92.39
0.784	92.39
0.787	92.1
0.79	92.63
0.793	92.51
0.796	92.39
0.799	91.76
0.808	91.82
0.82	91.87
0.832	91.58
0.844	91.64
0.856	91.52
0.868	91.52
0.88	91.29
0.892	91.11
0.904	90.94
0.916	90.82
0.928	90.41
0.94	89.89
0.952	88.77
0.964	86.62
0.976	84.34
0.988	85.51
1	86.09
1.012	86.86
1.024	87.79
1.036	88.55
1.048	89.24
1.06	89.36
1.072	89.71
1.084	89.6
1.096	89.42
1.108	89.07
1.12	88.83
1.132	88.37
1.144	87.32
1.156	85.51
1.168	83.14
1.18	80.56
1.192	78.97
1.204	78.38
1.216	77.97
1.228	77.5
1.24	77.56
1.252	77.5
1.264	78
1.276	78.1
1.288	77.96
1.3	77.02
1.312	75.26
1.324	73.02
1.336	70.38
1.348	68.8
1.36	67.86
1.372	66.36
1.384	63.27
1.396	57.16
1.408	48.63
1.42	37.63
1.432	33.17
1.444	35.09
1.456	33.65
1.468	33.12
1.48	34.57
1.492	36.21
1.504	37.37
1.516	38.71
1.528	39.58
1.54	40.33
1.552	41.1
1.564	41.62
1.576	41.62
1.588	41.33
1.6	40.92
1.612	40.39
1.624	39.8
1.636	39.38
1.648	39.08
1.66	38.78
1.672	38.43
1.684	38.24
1.696	38.11
1.708	37.88
1.72	37.76
1.732	37.41
1.744	37.17
1.756	36.89
1.768	36.71
1.78	36.77
1.792	37.29
1.804	37.81
1.816	37.95
1.828	37.85
1.84	37.11
1.852	35.99
1.864	34.18
1.876	31.34
1.888	27.8
1.9	23.24
1.912	18.14
1.924	13.34
1.936	9.01
1.948	6.52
1.96	6.58
1.972	7.95
1.984	9.56
1.996	11.39
2.008	12.81
2.02	13.59
2.032	13.96
2.044	14
2.056	13.87
2.068	13.5
2.08	13.14
2.092	12.45
2.104	11.69
2.116	10.72
2.128	10.75
2.14	10.97
2.152	10.53
2.164	9.99
2.176	10.26
2.188	11.61
2.2	13.07
2.212	14.34
2.224	14.97
2.236	15.42
2.248	16.16
2.26	17.52
2.272	18.61
2.284	19.1
2.296	19.07
2.308	18.58
2.32	18.1
2.332	17.48
2.344	16.71
2.356	15.39
2.368	14.01
2.38	12.54
2.392	11.17
2.404	9.98
2.416	9.08
2.428	8.29
2.44	7.44
2.452	6.71
2.464	6.08
2.476	5.74
2.488	5.63
2.5	5.86
