Name: Glossy Black Paint
Type: Manmade materials
Class: General Construction Materials
Subclass: Paints
Particle Size: Solid
Sample No.: 1601
Owner: JPL
Origin: The Sherwin-Williams Co., Solon, OH 44139
Description: Glossy black interior/exterior spray paint.
Measurement: Hemispherical reflectance
X Units: Wavelength (micrometers)
Y Units: Reflectance (percent)
wavelength	value
14.0131	4.99342
13.7895	5.50062
13.5729	4.50252
13.363	4.63473
13.1595	4.51796
12.9621	4.64803
12.7705	4.86864
12.5845	4.55313
12.4039	4.71885
12.2284	4.93061
12.0578	4.98837
11.8918	5.01564
11.7304	4.81956
11.5733	4.97381
11.4203	5.18371
11.2714	5.14351
11.1263	5.00232
10.9848	5.05962
10.8469	5.08248
10.7125	5.03906
10.5813	5.26703
10.4533	5.25522
10.3284	5.19575
10.2064	5.1111
10.0872	5.00135
9.97084	4.99032
9.8571	5.26757
9.74592	5.43143
9.63724	5.76324
9.53094	5.49995
9.42697	5.64371
9.32524	5.61674
9.22568	4.60517
9.12823	4.8757
9.03281	5.13301
8.93937	5.44024
8.84784	5.47532
8.75816	5.34344
8.67029	5.18033
8.58416	4.91399
8.49973	4.71198
8.41693	4.40066
8.33574	4.13493
8.2561	4.39643
8.17797	5.16964
8.10131	5.22415
8.02606	4.1596
7.9522	3.77924
7.87969	3.63744
7.80849	3.30704
7.73856	2.81984
7.66987	2.76716
7.60239	2.38884
7.5361	2.92462
7.47094	3.204
7.4069	3.52315
7.34396	3.6923
7.28207	3.60385
7.22122	3.10027
7.16137	3.42151
7.10251	3.41076
7.04461	3.48492
6.98765	3.7529
6.9316	3.68548
6.87644	3.61847
6.82215	3.50902
6.76871	3.25312
6.71611	3.27999
6.66431	3.54285
6.61331	3.74621
6.56308	3.76703
6.51361	3.81485
6.46488	3.80241
6.41687	3.92689
6.36957	3.95168
6.32297	3.82471
6.27704	3.80304
6.23177	3.90535
6.18715	3.93928
6.14317	4.1023
6.0998	4.19062
6.05705	4.12637
6.01489	4.22696
5.97331	4.35223
5.9323	4.43493
5.89186	4.76705
5.85196	5.19541
5.81259	5.76835
5.77376	4.43782
5.73543	2.60068
5.69762	2.7061
5.6603	2.41949
5.62347	2.93765
5.5871	3.1867
5.55121	3.31364
5.51578	3.36845
5.4808	3.39203
5.44625	3.48691
5.41214	3.54718
5.37846	3.59809
5.34519	3.65533
5.31233	3.69348
5.27987	3.76861
5.24781	3.67212
5.21613	3.74034
5.18483	3.73639
5.15391	3.79885
5.12335	3.71844
5.09316	3.75699
5.06331	3.8087
5.03382	3.73215
5.00467	3.7709
4.97585	3.86818
4.94736	3.71904
4.9192	3.91872
4.89135	3.82974
4.86382	3.86827
4.8366	3.86831
4.80968	3.77938
4.78306	3.88404
4.75673	3.88417
4.73069	3.79613
4.70493	3.94879
4.67945	3.76852
4.65425	3.82178
4.62932	3.82793
4.60465	3.87827
4.58024	3.9306
4.55609	3.85905
4.5322	3.90041
4.50855	3.89062
4.48515	3.98291
4.46199	3.86265
4.43907	3.92421
4.41638	3.78291
4.39393	3.95036
4.3717	3.80747
4.34969	3.94709
4.32791	3.87962
4.30634	4.05606
4.28499	3.84072
4.26384	3.89531
4.24291	3.91365
4.22218	3.92442
4.20165	3.95173
4.18132	3.87042
4.16118	3.88961
4.14124	3.78618
4.12149	3.89973
4.10192	3.82193
4.08255	3.99805
4.06335	3.83762
4.04433	3.99078
4.02549	3.93639
4.00683	3.87175
3.98833	3.86764
3.97001	3.88469
3.95186	3.93781
3.93386	3.97616
3.91604	3.92675
3.89837	3.85483
3.88086	3.91249
3.86351	4.00389
3.84631	3.94237
3.82927	3.88239
3.81238	4.00026
3.79563	3.96792
3.77903	3.77227
3.76258	3.92602
3.74627	3.96644
3.7301	3.88368
3.71406	3.97863
3.69817	3.95838
3.68241	4.00284
3.66678	3.95266
3.65129	3.89673
3.63593	3.93433
3.62069	3.90302
3.60559	4.02542
3.59061	3.97959
3.57575	4.09909
3.56101	3.89561
3.5464	4.0221
3.5319	3.93559
3.51753	4.03575
3.50327	3.90997
3.48912	3.90107
3.47509	3.87656
3.46117	4.00338
3.44736	3.81425
3.43367	3.82169
3.42007	3.89131
3.40659	3.76316
3.39322	3.61829
3.37994	3.57025
3.36678	3.36607
3.35371	3.35684
3.34074	3.65625
3.32788	3.41346
3.31511	3.70009
3.30244	3.58655
3.28987	3.71317
3.27739	3.8795
3.26501	3.87576
3.25272	3.73093
3.24052	3.83783
3.22841	3.79774
3.2164	3.93913
3.20447	3.70734
3.19263	3.7532
3.18088	3.77241
3.16921	3.89936
3.15763	3.98918
3.14614	3.79372
3.13472	3.82926
3.12339	3.75971
3.11214	3.80965
3.10098	3.93679
3.08989	3.93034
3.07888	3.97379
3.06795	3.98963
3.0571	3.8809
3.04632	3.85044
3.03562	3.84951
3.02499	3.80542
3.01444	3.89768
3.00396	4.03932
2.99355	3.93195
2.98322	3.87186
2.97295	3.89683
2.96276	3.95492
2.95264	4.00856
2.94258	3.84313
2.9326	3.96853
2.92268	3.87311
2.91283	3.89394
2.90304	3.95836
2.89332	3.85605
2.88367	3.80185
2.87408	3.70024
2.86455	4.03225
2.85508	3.6997
2.84568	3.77349
2.83634	3.95814
2.82706	3.65226
2.81784	3.51711
2.80869	3.85927
2.79959	3.80528
2.79055	3.96309
2.78156	3.89923
2.77264	3.70108
2.76377	3.95428
2.75496	3.88993
2.7462	3.87225
2.7375	3.95567
2.72886	3.85919
2.72027	3.92832
2.71173	3.82185
2.70325	3.77678
2.69482	4.03182
2.68644	3.89346
2.67812	3.97946
2.66984	3.94204
2.66162	3.99652
2.65345	3.75102
2.64532	3.78258
2.63725	3.60799
2.62923	3.95338
2.62125	3.79764
2.61332	3.9374
2.60544	3.73999
2.59761	3.99187
2.58983	3.89899
2.58209	3.89147
2.5744	3.95587
2.56675	3.63495
2.55915	3.98341
2.55159	3.85153
2.54408	3.93055
2.53661	3.70311
2.52919	3.82444
2.52181	3.95409
2.51447	3.7985
2.50717	4.03437
2.49992	3.86086
2.49271	3.89541
2.48554	3.98451
2.47841	3.91362
2.47132	3.7689
2.46427	3.8145
2.45727	3.94087
2.4503	3.86587
2.44337	3.89513
2.43648	3.97125
2.42963	3.94692
2.42282	3.92482
2.41605	3.81759
2.40931	3.92384
2.40261	3.69619
2.39595	3.67896
2.38932	3.86674
2.38274	3.94773
2.37618	4.12166
2.36967	4.02251
2.36319	3.83156
2.35674	3.75058
2.35033	4.10779
2.34396	3.86082
2.33762	3.93541
2.33131	4.01326
2.32504	3.84537
2.3188	3.93081
2.31259	3.49992
2.30642	3.71839
2.30028	3.90899
2.29417	4.07231
2.2881	3.74084
2.28206	3.83963
2.27605	4.08149
2.27007	4.07229
2.26412	3.89698
2.2582	3.81884
2.25232	4.00032
2.24646	3.89536
2.24064	3.77769
2.23484	3.89874
2.22908	3.87663
2.22334	3.81659
2.21764	3.93812
2.21196	3.88682
2.20631	3.87982
2.20069	3.95169
2.1951	3.9382
2.18954	3.9075
2.18401	3.88386
2.1785	3.86084
2.17302	3.99115
2.16757	4.00831
2.16215	4.06453
2.15675	3.93929
2.15138	3.90847
2.14604	4.0344
2.14072	4.01652
2.13543	3.79988
2.13017	3.99791
2.12493	3.75845
2.11972	3.61784
2.11453	3.89935
2.10937	3.93531
2.10423	3.95454
2.09912	3.95555
2.09404	3.92319
2.08897	3.79369
2.08394	4.13037
2.07892	3.83284
2.07393	3.7472
2.06897	3.92719
2.06403	3.70757
2.05911	3.89988
2.05421	4.20235
2.04934	4.1019
2.04449	3.80895
2.03967	4.11907
2.03486	4.17975
2.03008	4.22
2.02533	3.93028
2.02059	3.99447
2.01588	3.78311
2.01118	3.95147
2.00651	3.7468
2.00187	3.96222
