Name: Chocolate "Marble" Limestone
Type: Rock
Class: Sedimentary
Subclass: Limestone
Particle Size: Solid surface
Sample No.: Ward68.txt
Owner: JPL
Origin: Ward's Collection of American Rocks.  Sample locality - Knoxville, Knox Coutny, Tennessee.
Description: A brownish, partially crystalline limestone.
Measurement: Hemispherical reflectance
X Units: Wavelength (micrometers)
Y Units: Reflectance (percent)
wavelength	value
15.3871	3.88773
15.118	4.60108
14.8581	4.16679
14.6069	4.64091
14.3642	4.68574
14.1293	4.6957
13.9021	2.49147
13.682	3.93656
13.4687	4.62462
13.2621	4.71258
13.0616	4.89555
12.8672	5.03152
12.6784	4.91883
12.4951	5.01902
12.317	5.31924
12.1439	5.62929
11.9757	5.82163
11.812	5.66952
11.6527	6.59697
11.4977	9.4302
11.3468	21.3163
11.1997	10.0129
11.0564	7.29046
10.9168	6.84869
10.7806	6.27202
10.6478	5.83127
10.5182	6.04254
10.3917	6.2169
10.2683	6.24758
10.1477	5.97744
10.0299	6.01656
9.9148	5.89881
9.8024	6.12966
9.6925	6.39553
9.585	6.57324
9.4798	6.87914
9.377	6.74617
9.2763	6.81885
9.1778	6.71187
9.0814	7.37577
8.987	7.29621
8.8945	7.47998
8.8039	7.84777
8.7151	7.32333
8.6281	6.97388
8.5428	6.69908
8.4592	6.81943
8.3772	7.30011
8.2967	7.50785
8.2179	7.82743
8.1404	7.96245
8.0645	7.77693
7.9899	8.33471
7.9167	8.24365
7.8449	8.4187
7.7743	8.64049
7.705	8.78784
7.6369	8.85554
7.57	9.19686
7.5043	9.67245
7.4397	10.3061
7.3762	10.903
7.3138	11.8554
7.2524	13.5336
7.1921	16.2137
7.1327	20.125
7.0743	25.7997
7.0169	26.6514
6.9604	27.2966
6.9047	28.2318
6.85	29.7176
6.7962	31.6433
6.7431	33.7145
6.6909	37.2029
6.6395	40.4614
6.5889	42.3609
6.539	43.547
6.49	43.4086
6.4416	32.5845
6.3939	17.1383
6.347	8.71018
6.3007	4.25521
6.2551	2.8837
6.2101	2.03757
6.1658	1.58303
6.1222	1.43563
6.0791	1.30705
6.0366	1.3092
5.9948	1.36498
5.9535	1.47359
5.9127	1.58896
5.8726	1.67056
5.8329	1.62406
5.7938	1.70248
5.7552	1.81163
5.7172	1.9013
5.6796	1.98991
5.6425	2.17363
5.6059	2.07765
5.5698	1.71936
5.5341	1.82989
5.4989	2.51575
5.4641	3.04101
5.4298	3.43214
5.3959	3.63413
5.3624	4.02789
5.3294	4.46488
5.2967	4.70086
5.2644	5.00403
5.2326	5.23483
5.2011	5.45523
5.17	5.54531
5.1392	5.75641
5.1088	5.17557
5.0788	5.99985
5.0491	6.0581
5.0198	6.15036
4.9908	6.24101
4.9622	6.17233
4.9338	6.28176
4.9058	6.2435
4.8781	6.42667
4.8508	6.49368
4.8237	6.68456
4.7969	6.57719
4.7704	6.6093
4.7443	6.25675
4.7184	5.69644
4.6927	4.81293
4.6674	4.62041
4.6423	5.08379
4.6175	5.81045
4.593	6.14482
4.5687	6.25992
4.5447	6.48325
4.5209	6.40517
4.4974	6.51688
4.4741	7.14285
4.451	7.54184
4.4282	7.89829
4.4057	8.0947
4.3833	8.3624
4.3612	8.17425
4.3393	7.91185
4.3176	7.86791
4.2962	7.96037
4.2749	7.67785
4.2539	8.05316
4.233	7.60146
4.2124	7.86867
4.192	8.06389
4.1717	7.88096
4.1517	7.3563
4.1319	7.18163
4.1122	6.82309
4.0927	6.42553
4.0734	5.76859
4.0543	5.26808
4.0354	4.35547
4.0166	4.13994
3.9981	3.55002
3.9796	3.29054
3.9614	3.34392
3.9433	3.58808
3.9254	3.76955
3.9077	4.0918
3.8901	3.94464
3.8726	4.10551
3.8554	4.23557
3.8382	4.28053
3.8213	4.57573
3.8045	5.55795
3.7878	6.99382
3.7713	7.74967
3.7549	8.55707
3.7386	9.12113
3.7225	9.154
3.7066	9.5155
3.6907	9.73811
3.675	9.70548
3.6595	9.53194
3.644	9.4226
3.6287	9.09137
3.6136	8.87381
3.5985	8.23766
3.5836	7.53455
3.5688	7.01679
3.5541	6.6221
3.5396	6.43725
3.5251	4.9209
3.5108	4.21671
3.4966	4.00451
3.4825	4.06334
3.4685	4.04362
3.4547	4.29825
3.4409	4.44015
3.4273	4.47573
3.4137	4.57484
3.4003	4.32282
3.387	4.74351
3.3738	4.40849
3.3606	4.32401
3.3476	4.40057
3.3347	5.42042
3.3219	6.18637
3.3092	6.56968
3.2965	7.11076
3.284	7.05984
3.2716	7.00759
3.2593	7.60737
3.247	7.75659
3.2348	7.54783
3.2228	7.50268
3.2108	7.7489
3.1989	7.19763
3.1871	7.24051
3.1754	7.27383
3.1638	7.40452
3.1523	6.83374
3.1408	6.19949
3.1294	6.7707
3.1181	6.30854
3.1069	6.43641
3.0958	6.41887
3.0848	6.51109
3.0738	6.255
3.0629	6.44361
3.0521	6.34619
3.0413	6.53305
3.0307	6.26577
3.0201	6.64207
3.0096	6.58786
2.9991	6.44026
2.9887	6.29589
2.9784	6.03811
2.9682	6.48442
2.9581	6.21127
2.948	6.56787
2.9379	6.17341
2.928	6.50467
2.9181	6.8856
2.9083	6.66261
2.8985	6.76084
2.8888	6.62923
2.8792	7.35177
2.8697	7.22821
2.8602	6.92805
2.8507	7.03332
2.8413	7.28125
2.832	7.31632
2.8228	7.62296
2.8136	6.54431
2.8045	8.67646
2.7954	7.23776
2.7864	7.08597
2.7774	8.03392
2.7685	7.82944
2.7597	7.9671
2.7509	8.70481
2.7422	9.26332
2.7335	10.2803
2.7249	11.6795
2.7163	13.5223
2.7078	15.2621
2.6994	17.5303
2.691	18.87
2.6826	19.3558
2.6743	20.4209
2.666	21.5119
2.6578	21.019
2.6497	21.5482
2.6416	21.8064
2.6336	21.5224
2.6256	21.9152
2.6176	21.8069
2.6097	21.7714
2.6018	21.1048
2.594	21.9938
2.5863	20.7536
2.5785	20.4319
2.5709	19.5467
2.5633	18.4361
2.5557	15.3763
2.5481	13.2508
2.5406	12.068
2.5332	12.249
2.5258	12.896
2.5184	14.4443
2.5111	14.2754
2.5038	14.8523
2.4966	15.2106
2.4894	15.2049
2.4823	16.3541
2.4752	16.7168
2.4681	17.8232
2.4611	18.5476
2.4541	19.716
2.4471	20.3714
2.4402	20.6241
2.4333	21.212
2.4265	21.7979
2.4197	21.5369
2.413	22.4764
2.4063	22.0037
2.3996	22.8948
2.3929	22.8096
2.3863	22.399
2.3798	22.49
2.3732	21.4117
2.3667	21.2845
2.3603	19.7085
2.3538	18.2134
2.3474	16.3922
2.3411	16.367
2.3347	16.1261
2.3285	16.8407
2.3222	18.1305
2.316	18.2402
2.3098	18.5312
2.3036	18.4689
2.2975	19.166
2.2914	19.4811
2.2854	20.2674
2.2793	21.2062
2.2733	21.904
2.2674	22.013
2.2614	21.7962
2.2555	22.5713
2.2497	23.8765
2.2438	23.0687
2.238	23.09
2.2322	23.2586
2.2265	23.7785
2.2208	23.4424
2.2151	23.2799
2.2094	24.3059
2.2038	23.6611
2.1982	23.6888
2.1926	22.9063
2.187	24.0001
2.1815	24.0381
2.176	24.3983
2.1706	24.0209
2.1651	23.8712
2.1597	22.7295
2.1543	23.5035
2.149	23.8011
2.1436	24.5259
2.1383	25.0143
2.1331	25.0214
2.1278	24.6169
2.1226	24.4454
2.1174	24.9404
2.1122	24.8675
2.1071	24.6349
2.1019	23.2714
2.0968	24.9907
2.0918	24.1708
2.0867	23.6339
2.0817	24.71
2.0767	23.7582
2.0717	25.3383
2.0667	26.1127
2.0618	25.0642
2.0569	25.8432
2.052	24.3711
2.0472	23.8656
2.0423	23.2745
2.0375	24.0278
2.0327	23.4056
2.028	24.0652
2.0232	24.7342
2.0185	24.3757
2.0138	25.1572
2.0091	24.6254
2.0044	23.0594
1.9998	22.8956
