Name: Porphyritic Biotite Granite
Type: Rock
Class: Igneous
Subclass: Felsic
Particle Size: Solid surface
Sample No.: Ward10.txt
Owner: JPL
Origin: Ward's Collection of American Rocks.  Sample locality - St. Cloud, Stearns County, Minnesota.
Description: The rock is a very coarse grained granite with large pale
Measurement: Hemispherical reflectance
X Units: Wavelength (micrometers)
Y Units: Reflectance (percent)
wavelength	value
2.5	27.7662
2.494	27.396
2.488	27.9092
2.482	28.0235
2.476	27.8572
2.47	27.9478
2.464	28.291
2.458	28.4285
2.452	28.431
2.446	28.5066
2.44	28.6472
2.434	28.8487
2.428	28.8341
2.422	28.982
2.416	29.0111
2.41	29.0777
2.404	29.1937
2.398	29.1775
2.392	29.2667
2.386	29.4066
2.38	29.3615
2.374	29.3607
2.368	29.2794
2.362	29.1447
2.356	28.9108
2.35	28.8893
2.344	28.9587
2.338	28.9936
2.332	29.2939
2.326	29.6635
2.32	30.0435
2.314	30.4392
2.308	30.809
2.302	31.0407
2.296	31.2232
2.29	31.4104
2.284	31.5057
2.278	31.614
2.272	31.6677
2.266	31.6748
2.26	31.6879
2.254	31.7232
2.248	31.8789
2.242	32.1126
2.236	32.3719
2.23	32.449
2.224	32.6422
2.218	32.6241
2.212	32.5596
2.206	32.2985
2.2	32.2898
2.194	32.2885
2.188	32.5606
2.182	32.8414
2.176	33.2834
2.17	33.5336
2.164	33.764
2.158	33.9406
2.152	33.9836
2.146	34.053
2.14	33.9613
2.134	33.9917
2.128	33.8165
2.122	33.7687
2.116	33.593
2.11	33.5181
2.104	33.4118
2.098	33.3391
2.092	33.4346
2.086	33.3863
2.08	33.3345
2.074	33.3139
2.068	33.2451
2.062	33.2467
2.056	33.153
2.05	33.0988
2.044	32.9887
2.038	32.9622
2.032	32.8386
2.026	32.6662
2.02	32.5652
2.014	32.4557
2.008	32.3749
2.002	32.2455
1.996	32.0697
1.99	31.9546
1.984	31.8047
1.978	31.7371
1.972	31.5154
1.966	31.4746
1.96	31.2333
1.954	31.1779
1.948	31.0652
1.942	31.0401
1.936	30.9753
1.93	30.8953
1.924	30.8392
1.918	30.8134
1.912	30.97
1.906	31.3413
1.9	31.5216
1.894	32.0071
1.888	32.4237
1.882	32.88
1.876	33.3128
1.87	33.1272
1.864	33.2214
1.858	33.3321
1.852	33.3842
1.846	33.2537
1.84	33.387
1.834	33.1462
1.828	33.1521
1.822	33.2597
1.816	33.145
1.81	33.1354
1.804	33.1649
1.798	33.0739
1.792	33.1686
1.786	33.011
1.78	33.0087
1.774	32.9662
1.768	32.9822
1.762	32.9098
1.756	32.9172
1.75	32.8768
1.744	32.8802
1.738	32.8389
1.732	32.8229
1.726	32.8584
1.72	32.7284
1.714	32.6972
1.708	32.6543
1.702	32.6933
1.696	32.5522
1.69	32.5404
1.684	32.5032
1.678	32.469
1.672	32.3568
1.666	32.3603
1.66	32.2452
1.654	32.2151
1.648	32.1338
1.642	32.208
1.636	32.041
1.63	31.982
1.624	31.9137
1.618	31.9175
1.612	31.7627
1.606	31.7395
1.6	31.6782
1.594	31.6166
1.588	31.5423
1.582	31.4271
1.576	31.3334
1.57	31.1686
1.564	31.1633
1.558	31.022
1.552	30.9307
1.546	30.8076
1.54	30.6918
1.534	30.6155
1.528	30.4739
1.522	30.3462
1.516	30.2359
1.51	30.0963
1.504	29.9694
1.498	29.8146
1.492	29.7597
1.486	29.5991
1.48	29.3965
1.474	29.2554
1.468	29.2044
1.462	29.0954
1.456	29.0168
1.45	28.8888
1.444	28.8217
1.438	28.661
1.432	28.6223
1.426	28.5003
1.42	28.2155
1.414	27.7156
1.408	27.8058
1.402	28.0566
1.396	28.2461
1.39	28.4794
1.384	28.5014
1.378	28.3583
1.372	28.3317
1.366	28.3857
1.36	28.2949
1.354	28.2951
1.348	28.2236
1.342	28.0879
1.336	28.0711
1.33	28.0464
1.324	28.0695
1.318	28.0225
1.312	27.9608
1.306	27.9455
1.3	27.8668
1.294	27.8164
1.288	27.8111
1.282	27.85
1.276	27.839
1.27	27.7877
1.264	27.7828
1.258	27.7412
1.252	27.8173
1.246	27.7868
1.24	27.838
1.234	27.8323
1.228	27.8312
1.222	27.8788
1.216	27.881
1.21	27.9551
1.204	27.9933
1.198	28.0101
1.192	28.0618
1.186	28.0837
1.18	28.1569
1.174	28.2361
1.168	28.2761
1.162	28.3721
1.156	28.4708
1.15	28.5143
1.144	28.6296
1.138	28.6756
1.132	28.8257
1.126	28.8635
1.12	28.9744
1.114	29.0596
1.108	29.1528
1.102	29.1963
1.096	29.3406
1.09	29.4476
1.084	29.5979
1.078	29.6658
1.072	29.7507
1.066	29.8693
1.06	29.9371
1.054	30.124
1.048	30.1736
1.042	30.2202
1.036	30.4545
1.03	30.5298
1.024	30.6294
1.018	30.6896
1.012	30.7998
1.006	30.8201
1	30.8805
0.994	30.9699
0.988	31.0346
0.982	31.0788
0.976	31.1245
0.97	31.159
0.964	31.2638
0.958	31.273
0.952	31.3252
0.946	31.3261
0.94	31.3431
0.934	31.3816
0.928	31.4736
0.922	31.5154
0.916	31.56
0.91	31.6417
0.904	31.6938
0.898	31.7856
0.892	31.8535
0.886	31.944
0.88	31.9422
0.874	31.9842
0.868	31.9841
0.862	31.9178
0.856	32.024
0.85	32.0255
0.844	32.0711
0.838	32.0787
0.832	32.1044
0.826	32.0987
0.82	32.0948
0.814	32.0871
0.808	32.051
0.802	32.0255
0.796	31.962
0.79	31.8933
0.784	31.8522
0.778	31.7922
0.772	31.7377
0.766	31.6508
0.76	31.5922
0.754	31.5321
0.748	31.4652
0.742	31.4219
0.736	31.3834
0.73	31.3365
0.724	31.296
0.718	31.269
0.712	31.2458
0.706	31.2323
0.7	31.2106
0.694	31.2106
0.688	31.2141
0.682	31.216
0.676	31.2308
0.67	31.2563
0.664	31.2724
0.658	31.2914
0.652	31.3154
0.646	31.3556
0.64	31.3813
0.634	31.4148
0.628	31.4447
0.622	31.4796
0.616	31.5082
0.61	31.5258
0.604	31.5597
0.598	31.5693
0.592	31.5935
0.586	31.5815
0.58	31.5457
0.574	31.4998
0.568	31.4501
0.562	31.3669
0.556	31.2925
0.55	31.2134
0.544	31.1101
0.538	31.019
0.532	30.9247
0.526	30.8204
0.52	30.7115
0.514	30.5887
0.508	30.4632
0.502	30.345
0.496	30.2075
0.49	30.1173
0.484	30.0145
0.478	29.8486
0.472	29.6281
0.466	29.4696
0.46	29.3034
0.454	29.0965
0.448	28.9211
0.442	28.7503
0.436	28.5125
0.43	28.2452
0.424	27.9874
0.418	27.7616
0.412	27.5576
0.406	27.3106
0.4	27.0416
