Name: Lepidolite K(Li,Al)3(Si,Al)_4O_10(F,OH)_2
Type: Mineral
Class: Silicates
Subclass: Phyllosilicates
Particle Size: 0-45um
Sample No.: PS-13B
Owner: JPL
Origin: South Africa.
Description: Lavender lepidolite.
Measurement: Hemispherical reflectance
X Units: Wavelength (micrometers)
Y Units: Reflectance (percent)
wavelength	value
2.5	62.4388
2.494	61.7204
2.488	61.3645
2.482	61.2115
2.476	61.1363
2.47	60.8323
2.464	60.5011
2.458	60.1252
2.452	59.6647
2.446	59.301
2.44	58.9477
2.434	59.0949
2.428	59.6708
2.422	60.3525
2.416	61.4182
2.41	62.3988
2.404	63.5453
2.398	64.4572
2.392	64.9237
2.386	65.1812
2.38	65.2795
2.374	65.4059
2.368	65.3232
2.362	65.1137
2.356	64.7673
2.35	64.3195
2.344	64.2682
2.338	64.7247
2.332	65.7054
2.326	67.0161
2.32	68.425
2.314	69.7117
2.308	71.0108
2.302	72.1214
2.296	73.0044
2.29	73.6124
2.284	74.0822
2.278	74.3379
2.272	74.5002
2.266	74.5541
2.26	74.394
2.254	74.4378
2.248	74.1999
2.242	74.0946
2.236	73.8854
2.23	73.3085
2.224	72.2426
2.218	69.904
2.212	66.5166
2.206	62.1008
2.2	58.8643
2.194	57.8703
2.188	59.8404
2.182	63.9169
2.176	68.4045
2.17	71.9121
2.164	74.4191
2.158	76.1282
2.152	77.1766
2.146	77.8689
2.14	78.2149
2.134	78.3869
2.128	78.1913
2.122	77.9301
2.116	77.6726
2.11	77.781
2.104	77.865
2.098	78.1482
2.092	78.7293
2.086	79.0085
2.08	79.3186
2.074	79.5745
2.068	79.7515
2.062	79.878
2.056	80.0727
2.05	80.0755
2.044	80.1514
2.038	80.1858
2.032	80.2464
2.026	80.2541
2.02	80.2661
2.014	80.3363
2.008	80.2311
2.002	80.2091
1.996	80.0798
1.99	79.9766
1.984	79.9281
1.978	79.7916
1.972	79.6979
1.966	79.6435
1.96	79.587
1.954	79.4682
1.948	79.5286
1.942	79.4025
1.936	79.3694
1.93	79.409
1.924	79.3652
1.918	79.2317
1.912	79.3786
1.906	79.628
1.9	79.907
1.894	80.4303
1.888	80.7896
1.882	81.1303
1.876	81.2056
1.87	81.4924
1.864	81.5852
1.858	81.6415
1.852	81.6869
1.846	81.6249
1.84	81.6034
1.834	81.6125
1.828	81.668
1.822	81.7387
1.816	81.8448
1.81	81.9304
1.804	81.9675
1.798	81.9442
1.792	81.9718
1.786	81.9243
1.78	81.8956
1.774	81.8872
1.768	81.9078
1.762	81.9153
1.756	81.8313
1.75	81.8847
1.744	82.0565
1.738	82.034
1.732	82.0793
1.726	82.1087
1.72	82.1069
1.714	82.0976
1.708	82.0179
1.702	82.1134
1.696	82.1818
1.69	82.1249
1.684	82.1456
1.678	82.058
1.672	82.1942
1.666	82.0967
1.66	82.1316
1.654	82.1694
1.648	82.1441
1.642	82.2509
1.636	82.173
1.63	82.1749
1.624	82.1935
1.618	82.1587
1.612	82.1777
1.606	82.1272
1.6	82.2271
1.594	82.1242
1.588	82.1641
1.582	82.1542
1.576	82.1602
1.57	82.1117
1.564	82.0941
1.558	82.039
1.552	82.0175
1.546	81.9685
1.54	82.0148
1.534	81.9293
1.528	81.9917
1.522	81.8691
1.516	81.913
1.51	81.8349
1.504	81.8489
1.498	81.7807
1.492	81.7881
1.486	81.6819
1.48	81.6975
1.474	81.6643
1.468	81.5941
1.462	81.5411
1.456	81.3958
1.45	81.3064
1.444	81.2002
1.438	80.9756
1.432	80.6397
1.426	79.5214
1.42	75.5692
1.414	69.0074
1.408	68.5871
1.402	70.0811
1.396	74.4785
1.39	78.7748
1.384	79.5662
1.378	80.759
1.372	81.0542
1.366	81.2839
1.36	81.4362
1.354	81.4113
1.348	81.3922
1.342	81.2922
1.336	81.2481
1.33	81.2352
1.324	81.181
1.318	81.2826
1.312	81.1773
1.306	81.27
1.3	81.2957
1.294	81.3187
1.288	81.3176
1.282	81.2544
1.276	81.3313
1.27	81.3467
1.264	81.3533
1.258	81.2589
1.252	81.1686
1.246	81.1048
1.24	81.1654
1.234	81.1342
1.228	81.2062
1.222	81.1618
1.216	81.0174
1.21	81.1147
1.204	80.9793
1.198	80.9995
1.192	80.9965
1.186	80.9553
1.18	80.9306
1.174	80.8756
1.168	80.878
1.162	80.8476
1.156	80.8056
1.15	80.7468
1.144	80.7907
1.138	80.7492
1.132	80.7235
1.126	80.6848
1.12	80.5683
1.114	80.6092
1.108	80.508
1.102	80.4982
1.096	80.3961
1.09	80.4438
1.084	80.4759
1.078	80.3711
1.072	80.3277
1.066	80.2599
1.06	80.1452
1.054	80.1128
1.048	80.0475
1.042	80.0745
1.036	80.0242
1.03	79.9612
1.024	79.9024
1.018	79.8828
1.012	79.8009
1.006	79.7561
1	79.6192
0.994	79.6053
0.988	79.5439
0.982	79.4805
0.976	79.3882
0.97	79.1222
0.964	78.8122
0.958	78.8844
0.952	78.9937
0.946	79.0041
0.94	78.9098
0.934	78.9389
0.928	78.8429
0.922	78.7678
0.916	78.6363
0.91	78.6336
0.904	78.5605
0.898	78.4836
0.892	78.4158
0.886	78.3486
0.88	78.2945
0.874	78.2669
0.868	78.2298
0.862	78.1092
0.856	78.2007
0.85	78.235
0.844	78.0779
0.838	78.0586
0.832	78.0751
0.826	77.957
0.82	77.944
0.814	77.8623
0.808	77.881
0.802	77.7696
0.796	77.7437
0.79	77.6725
0.784	77.649
0.778	77.5045
0.772	77.5343
0.766	77.5203
0.76	77.4838
0.754	77.4715
0.748	77.4905
0.742	77.4814
0.736	77.5026
0.73	77.514
0.724	77.5227
0.718	77.5575
0.712	77.5389
0.706	77.5764
0.7	77.6008
0.694	77.6126
0.688	77.615
0.682	77.613
0.676	77.6227
0.67	77.5831
0.664	77.5078
0.658	77.427
0.652	77.2607
0.646	77.0918
0.64	76.8165
0.634	76.5122
0.628	76.1448
0.622	75.7226
0.616	75.2798
0.61	74.7545
0.604	74.2381
0.598	73.7555
0.592	73.2741
0.586	72.8248
0.58	72.3881
0.574	72.0463
0.568	71.8042
0.562	71.6584
0.556	71.6014
0.55	71.6421
0.544	71.7711
0.538	71.9742
0.532	72.1949
0.526	72.4566
0.52	72.7235
0.514	72.9664
0.508	73.146
0.502	73.275
0.496	73.3367
0.49	73.3604
0.484	73.3002
0.478	73.2129
0.472	73.1368
0.466	73.0465
0.46	72.9223
0.454	72.7454
0.448	72.5497
0.442	72.3808
0.436	72.1842
0.43	72.004
0.424	71.8045
0.418	71.5807
0.412	71.4113
0.406	71.2345
0.4	70.9785
