Name: Graphite C
Type: Mineral
Class: Elements
Particle Size: 125-500um
Sample No.: E-1A
Owner: JPL
Wavelength Range: VNIR-SWIR
Origin: Mexico, Sonora, Morelos, San Jose Mine
Measurement: Hemispherical reflectance
X Units: Wavelength (micrometers)
Y Units: Reflectance (percent)
wavelength	value
0.4	4.58
0.403	4.57
0.406	4.51
0.409	4.51
0.412	4.57
0.415	4.45
0.418	4.45
0.421	4.44
0.424	4.57
0.427	4.44
0.43	4.38
0.433	4.08
0.436	4.02
0.439	3.96
0.442	3.85
0.445	3.85
0.448	3.84
0.451	3.84
0.454	3.83
0.457	3.91
0.46	3.8
0.463	3.77
0.466	3.77
0.469	3.78
0.472	3.78
0.475	3.84
0.478	3.73
0.481	3.66
0.484	3.76
0.487	3.69
0.49	3.73
0.493	3.72
0.496	3.76
0.499	3.74
0.502	3.68
0.505	3.67
0.508	3.68
0.511	3.63
0.514	3.68
0.517	3.62
0.52	3.57
0.523	3.63
0.526	3.69
0.529	3.63
0.532	3.57
0.535	3.58
0.538	3.58
0.541	3.58
0.544	3.64
0.547	3.56
0.55	3.53
0.553	3.52
0.556	3.58
0.559	3.57
0.562	3.45
0.565	3.61
0.568	3.61
0.571	3.56
0.574	3.49
0.577	3.48
0.58	3.55
0.583	3.61
0.586	3.44
0.589	3.5
0.592	3.44
0.595	3.5
0.598	3.48
0.601	3.41
0.604	3.44
0.607	3.49
0.61	3.5
0.613	3.5
0.616	3.49
0.619	3.48
0.622	3.49
0.625	3.54
0.628	3.49
0.631	3.49
0.634	3.49
0.637	3.49
0.64	3.55
0.643	3.54
0.646	3.44
0.649	3.43
0.652	3.54
0.655	3.54
0.658	3.5
0.661	3.49
0.664	3.42
0.667	3.6
0.67	3.55
0.673	3.49
0.676	3.49
0.679	3.49
0.682	3.54
0.685	3.55
0.688	3.54
0.691	3.54
0.694	3.49
0.697	3.62
0.7	3.54
0.703	3.49
0.706	3.54
0.709	3.54
0.712	3.6
0.715	3.61
0.718	3.48
0.721	3.54
0.724	3.65
0.727	3.6
0.73	3.66
0.733	3.59
0.736	3.61
0.739	3.65
0.742	3.65
0.745	3.6
0.748	3.7
0.751	3.59
0.754	3.71
0.757	3.65
0.76	3.64
0.763	3.65
0.766	3.59
0.769	3.75
0.772	3.65
0.775	3.74
0.778	3.7
0.781	3.64
0.784	3.75
0.787	3.69
0.79	3.76
0.793	3.75
0.796	3.75
0.799	3.84
0.808	4.02
0.82	4.03
0.832	4.03
0.844	4.04
0.856	3.97
0.868	4.1
0.88	4.1
0.892	4.15
0.904	4.11
0.916	3.99
0.928	4.05
0.94	4.11
0.952	4.16
0.964	4.1
0.976	4.11
0.988	4.11
1	4.11
1.012	4.12
1.024	4.22
1.036	4.16
1.048	4.14
1.06	4.18
1.072	4.14
1.084	4.19
1.096	4.23
1.108	4.22
1.12	4.33
1.132	4.32
1.144	4.29
1.156	4.27
1.168	4.26
1.18	4.33
1.192	4.38
1.204	4.34
1.216	4.31
1.228	4.46
1.24	4.41
1.252	4.38
1.264	4.39
1.276	4.43
1.288	4.44
1.3	4.5
1.312	4.49
1.324	4.49
1.336	4.5
1.348	4.53
1.36	4.44
1.372	4.54
1.384	4.56
1.396	4.61
1.408	4.57
1.42	4.62
1.432	4.66
1.444	4.68
1.456	4.66
1.468	4.6
1.48	4.66
1.492	4.73
1.504	4.68
1.516	4.73
1.528	4.83
1.54	4.77
1.552	4.78
1.564	4.84
1.576	4.82
1.588	4.79
1.6	4.85
1.612	4.84
1.624	4.82
1.636	4.83
1.648	4.89
1.66	4.87
1.672	4.95
1.684	4.93
1.696	4.92
1.708	4.93
1.72	5.06
1.732	4.99
1.744	4.99
1.756	5.05
1.768	4.99
1.78	5.05
1.792	5.1
1.804	5.09
1.816	5.01
1.828	5.01
1.84	5.13
1.852	5.08
1.864	5.11
1.876	5.13
1.888	5.15
1.9	5.1
1.912	5.19
1.924	5.18
1.936	5.13
1.948	5.11
1.96	5.14
1.972	5.14
1.984	5.28
1.996	5.34
2.008	5.32
2.02	5.19
2.032	5.23
2.044	5.31
2.056	5.33
2.068	5.33
2.08	5.34
2.092	5.27
2.104	5.38
2.116	5.37
2.128	5.36
2.14	5.39
2.152	5.4
2.164	5.29
2.176	5.39
2.188	5.38
2.2	5.41
2.212	5.4
2.224	5.42
2.236	5.45
2.248	5.46
2.26	5.51
2.272	5.48
2.284	5.51
2.296	5.5
2.308	5.5
2.32	5.55
2.332	5.52
2.344	5.53
2.356	5.55
2.368	5.54
2.38	5.56
2.392	5.59
2.404	5.7
2.416	5.63
2.428	5.62
2.44	5.68
2.452	5.62
2.464	5.73
2.476	5.73
2.488	5.83
2.5	5.78
