Name: Orthoclase (Feldspar) (K,Na)AlSi_3O_8
Type: Mineral
Class: Silicates
Subclass: Tectosilicates
Particle Size: 125-500um
Sample No.: TS-12A
Owner: JPL
Origin: India
Measurement: Hemispherical reflectance
X Units: Wavelength (micrometers)
Y Units: Reflectance (percent)
wavelength	value
15.385	2.6391
15.116	1.328
14.856	1.8278
14.605	2.1346
14.362	2.5774
14.128	3.1079
13.9	3.159
13.68	2.5956
13.467	2.6776
13.26	2.7186
13.06	2.7094
12.866	2.4174
12.677	2.1774
12.494	1.9658
12.316	2.0524
12.143	2.6918
11.974	3.124
11.811	3.3036
11.651	3.4096
11.496	3.7606
11.345	4.1351
11.198	4.4065
11.055	5.0146
10.915	5.5236
10.779	5.9051
10.647	6.7003
10.517	7.5583
10.39	9.06
10.267	10.8283
10.146	12.8945
10.029	15.0104
9.914	17.1431
9.801	18.4269
9.691	19.6064
9.584	20.9177
9.479	20.5676
9.376	16.1671
9.275	12.7483
9.177	12.4494
9.08	12.0347
8.986	12.0061
8.893	13.2075
8.803	15.0282
8.714	15.7371
8.627	15.1134
8.542	14.6365
8.458	13.4059
8.376	10.9408
8.296	7.4292
8.217	3.8726
8.139	1.6346
8.063	0.7036
7.989	0.4038
7.916	0.0931
7.844	0.1075
7.773	0.1234
7.704	0
7.636	0.1492
7.569	0.2171
7.503	0.3305
7.439	0.1723
7.375	0.4425
7.313	0.3617
7.252	0.587
7.191	0.3628
7.132	0.5131
7.073	0.6117
7.016	0.7411
6.96	0.7384
6.904	0.6738
6.849	0.8185
6.795	0.8076
6.742	0.8645
6.69	0.8704
6.639	1.0005
6.588	1.1791
6.538	1.1236
6.489	1.1253
6.441	1.1163
6.393	1.0345
6.346	1.109
6.3	1.0129
6.254	1.0546
6.209	1.0767
6.165	1.2558
6.121	1.2218
6.078	1.3107
6.036	1.2338
5.994	1.2541
5.953	1.3183
5.912	1.2324
5.872	1.3469
5.832	1.2965
5.793	1.3136
5.755	1.2421
5.716	1.3107
5.679	1.2294
5.642	1.3014
5.605	1.3467
5.569	1.2787
5.533	1.4476
5.498	1.4775
5.463	1.6316
5.429	1.8649
5.395	1.9043
5.362	1.9856
5.329	2.0749
5.296	2.129
5.264	2.3793
5.232	2.6735
5.2	3.0633
5.169	3.6551
5.139	4.2772
5.108	5.1867
5.078	6.0331
5.049	7.0422
5.019	7.7107
4.99	8.2241
4.962	8.3945
4.933	8.1137
4.905	7.796
4.878	7.8073
4.85	7.9077
4.823	8.0348
4.796	7.9467
4.77	8.0554
4.744	8.1987
4.718	8.297
4.692	8.4412
4.667	8.6656
4.642	9.1674
4.617	9.8794
4.592	10.7765
4.568	11.911
4.544	13.3088
4.52	14.8975
4.497	16.5431
4.474	18.2604
4.45	20.0856
4.428	21.9615
4.405	23.891
4.383	25.8669
4.361	28.2548
4.339	30.7613
4.317	33.5631
4.296	36.6068
4.274	39.3821
4.253	41.3869
4.233	44.1938
4.212	45.4484
4.191	46.6609
4.171	47.7688
4.151	48.6094
4.131	49.4463
4.112	49.9427
4.092	50.4285
4.073	50.6911
4.054	51.03
4.035	51.3299
4.016	51.5412
3.998	51.9124
3.979	52.0814
3.961	52.6296
3.943	52.9792
3.925	53.4769
3.907	53.9586
3.89	54.5309
3.872	55.0176
3.855	55.8164
3.838	56.4872
3.821	57.3784
3.804	58.0892
3.787	58.8454
3.771	59.4989
3.754	60.0531
3.738	60.605
3.722	61.152
3.706	61.738
3.69	62.2297
3.675	62.7581
3.659	63.1528
3.644	63.4904
3.628	63.8056
3.613	63.9313
3.598	64.1092
3.583	64.1747
3.568	64.0192
3.554	63.8749
3.539	63.5569
3.525	62.8917
3.51	61.2763
3.496	60.2185
3.482	60.4811
3.468	60.365
3.454	59.8216
3.441	58.6583
3.427	56.8339
3.413	55.6437
3.4	56.7317
3.387	56.7795
3.373	56.338
3.36	56.9331
3.347	57.2471
3.334	56.9589
3.321	56.3745
3.309	55.9025
3.296	55.4908
3.284	54.7779
3.271	54.401
3.259	53.8395
3.247	53.2891
3.234	52.8193
3.222	52.4522
3.21	51.9291
3.199	51.6798
3.187	51.2041
3.175	50.791
3.163	50.4203
3.152	50.1468
3.14	49.7366
3.129	49.4822
3.118	49.1755
3.107	48.7538
3.095	48.675
3.084	48.3355
3.073	48.2108
3.063	48.138
3.052	47.9175
3.041	47.7755
3.03	47.7518
3.02	47.6614
3.009	47.4888
2.999	47.3987
2.988	46.9251
2.978	46.7941
2.968	46.345
2.958	46.454
2.948	46.0077
2.938	45.9684
2.928	45.767
2.918	45.7715
2.908	45.7016
2.898	45.7575
2.888	46.0377
2.879	46.5642
2.869	47.035
2.86	47.5927
2.85	48.1116
2.841	48.7566
2.832	49.2543
2.822	49.6034
2.813	50.3693
2.804	51.3127
2.795	50.8632
2.786	51.7047
2.777	51.7545
2.768	52.6952
2.759	52.5297
2.751	56.12
2.742	59.1096
2.733	59.8465
2.725	63.8444
2.716	64.4193
2.707	62.1993
2.699	65.0756
2.691	73.1971
2.682	76.8872
2.674	78.6886
2.666	82.7531
2.658	80.4284
2.649	80.5054
2.641	81.1173
2.633	81.8727
2.625	81.8258
2.617	83.6185
2.609	82.312
2.602	82.1103
2.594	84.4672
2.586	82.4437
2.578	82.1447
2.571	82.4033
2.563	83.2373
2.555	81.6962
2.548	82.1302
2.54	81.8359
2.533	82.0496
2.525	81.9395
2.518	82.0389
2.511	81.9882
2.504	82.1794
2.496	82.2706
2.489	82.2136
2.482	82.362
2.475	82.3248
2.468	82.5001
2.461	82.4833
2.454	82.763
2.447	82.7305
2.44	82.8908
2.433	82.9749
2.426	82.9933
2.419	83.2657
2.413	83.3122
2.406	83.3857
2.399	83.4202
2.393	83.3642
2.386	83.5239
2.379	83.687
2.373	83.6842
2.366	83.6589
2.36	83.6277
2.354	83.6732
2.347	83.6079
2.341	83.5128
2.334	83.7197
2.328	83.7526
2.322	83.7948
2.316	83.6766
2.309	83.5624
2.303	83.6986
2.297	83.7333
2.291	83.7074
2.285	83.7829
2.279	83.7782
2.273	83.7346
2.267	83.7532
2.261	83.9061
2.255	83.6954
2.249	83.8355
2.244	83.9083
2.238	83.8719
2.232	84.0193
2.226	83.7177
2.22	83.9227
2.215	83.8991
2.209	83.7458
2.204	83.5818
2.198	83.8863
2.192	83.8261
2.187	83.9791
2.181	83.8285
2.176	84.0398
2.17	84.1058
2.165	83.9028
2.159	84.1336
2.154	84.3474
2.149	84.1091
2.143	84.0046
2.138	84.4657
2.133	84.3114
2.128	84.4164
2.122	84.2569
2.117	84.2392
2.112	84.3555
2.107	84.1781
2.102	84.245
2.097	84.1025
2.091	84.1617
2.086	84.275
2.081	84.1832
2.076	84.1992
2.071	83.9545
2.066	84.2485
2.062	84.2638
2.057	84.0617
2.052	84.3892
2.047	84.0915
2.042	84.1718
2.037	84.1284
2.032	83.9558
2.028	84.219
2.023	84.2187
2.018	84.0684
2.014	84.0125
2.009	84.3939
2.004	83.9716
