Name: Chlorite
Type: Mineral
Class: Silicates
Subclass: Phyllosilicates
Particle Size: 125-500um
Sample No.: PS-12E
Owner: JPL
Origin: USA, Vermont.
Measurement: Hemispherical reflectance
X Units: Wavelength (micrometers)
Y Units: Reflectance (percent)
wavelength	value
2.5	17.4085
2.494	17.3827
2.488	17.247
2.482	17.5155
2.476	17.525
2.47	17.8865
2.464	18.0483
2.458	18.6156
2.452	19.0715
2.446	19.5668
2.44	19.8644
2.434	20.158
2.428	20.5127
2.422	20.6707
2.416	20.6963
2.41	20.5744
2.404	20.1805
2.398	19.7411
2.392	19.3929
2.386	19.1345
2.38	18.8599
2.374	18.4864
2.368	17.7793
2.362	16.9426
2.356	15.9341
2.35	15.227
2.344	14.6059
2.338	14.2306
2.332	14.1682
2.326	14.3465
2.32	14.708
2.314	15.1806
2.308	15.6371
2.302	15.9361
2.296	16.1991
2.29	16.7229
2.284	17.6384
2.278	18.7245
2.272	19.4556
2.266	19.5714
2.26	19.2504
2.254	18.6449
2.248	18.6279
2.242	19.8133
2.236	22.0685
2.23	24.5198
2.224	26.3063
2.218	27.6777
2.212	28.6242
2.206	29.1913
2.2	29.6859
2.194	30.0328
2.188	30.3686
2.182	30.736
2.176	31.1562
2.17	31.3847
2.164	31.6362
2.158	31.7587
2.152	31.8763
2.146	31.9984
2.14	31.9792
2.134	31.9042
2.128	31.7216
2.122	31.5888
2.116	31.4597
2.11	31.4337
2.104	31.3472
2.098	31.4936
2.092	31.6222
2.086	31.646
2.08	31.5434
2.074	31.4223
2.068	31.346
2.062	31.1708
2.056	30.9209
2.05	30.7311
2.044	30.3901
2.038	29.9722
2.032	29.4111
2.026	28.8043
2.02	28.1218
2.014	27.4883
2.008	27.0386
2.002	26.6985
1.996	26.5947
1.99	26.4991
1.984	26.5307
1.978	26.7438
1.972	27.0297
1.966	27.2913
1.96	27.329
1.954	27.4898
1.948	27.5808
1.942	27.885
1.936	28.1386
1.93	28.2067
1.924	28.2484
1.918	28.2888
1.912	28.2195
1.906	28.2208
1.9	28.0203
1.894	27.7689
1.888	27.5045
1.882	27.2058
1.876	27.1861
1.87	27.188
1.864	27.4036
1.858	27.3968
1.852	27.4997
1.846	27.52
1.84	27.5985
1.834	27.6073
1.828	27.5307
1.822	27.5301
1.816	27.4378
1.81	27.3786
1.804	27.2613
1.798	27.2035
1.792	27.038
1.786	26.8608
1.78	26.7521
1.774	26.5514
1.768	26.4489
1.762	26.2987
1.756	26.1627
1.75	25.9829
1.744	25.8262
1.738	25.654
1.732	25.4521
1.726	25.2984
1.72	25.0758
1.714	24.9006
1.708	24.6629
1.702	24.4462
1.696	24.2588
1.69	24.0004
1.684	23.8194
1.678	23.6392
1.672	23.3829
1.666	23.1743
1.66	22.8787
1.654	22.7245
1.648	22.3781
1.642	22.3106
1.636	21.8944
1.63	21.7124
1.624	21.3638
1.618	21.0979
1.612	20.9184
1.606	20.66
1.6	20.3581
1.594	20.0477
1.588	19.815
1.582	19.5058
1.576	19.2362
1.57	18.9744
1.564	18.7801
1.558	18.5279
1.552	18.3323
1.546	18.0689
1.54	17.895
1.534	17.775
1.528	17.5418
1.522	17.4433
1.516	17.3344
1.51	17.211
1.504	17.1416
1.498	16.9781
1.492	16.7832
1.486	16.6737
1.48	16.4369
1.474	16.1796
1.468	15.8967
1.462	15.6112
1.456	15.401
1.45	15.1447
1.444	14.9415
1.438	14.8272
1.432	14.8224
1.426	14.7627
1.42	14.4132
1.414	13.8775
1.408	13.643
1.402	13.5261
1.396	12.8152
1.39	12.8639
1.384	13.7879
1.378	13.8631
1.372	13.6894
1.366	13.5823
1.36	13.2865
1.354	13.1633
1.348	12.9471
1.342	12.7349
1.336	12.5627
1.33	12.3734
1.324	12.2746
1.318	12.039
1.312	11.8664
1.306	11.8013
1.3	11.5278
1.294	11.331
1.288	11.2007
1.282	11.0341
1.276	10.8375
1.27	10.7122
1.264	10.5584
1.258	10.3582
1.252	10.2916
1.246	10.1404
1.24	9.99759
1.234	9.83348
1.228	9.68556
1.222	9.55053
1.216	9.40725
1.21	9.33099
1.204	9.17598
1.198	9.09485
1.192	8.9831
1.186	8.88992
1.18	8.75659
1.174	8.59984
1.168	8.60878
1.162	8.55208
1.156	8.42838
1.15	8.3927
1.144	8.32088
1.138	8.24087
1.132	8.17979
1.126	8.13411
1.12	8.10349
1.114	8.07287
1.108	8.03844
1.102	8.00325
1.096	7.91508
1.09	7.91481
1.084	8.00512
1.078	7.94621
1.072	8.01674
1.066	7.9701
1.06	7.91601
1.054	7.91933
1.048	7.91618
1.042	7.94578
1.036	7.94043
1.03	7.954
1.024	7.96565
1.018	7.92931
1.012	7.89158
1.006	7.81975
1	7.83716
0.994	7.73771
0.988	7.76205
0.982	7.68502
0.976	7.66755
0.97	7.56311
0.964	7.50343
0.958	7.45234
0.952	7.41497
0.946	7.29996
0.94	7.30825
0.934	7.17603
0.928	7.11942
0.922	7.09642
0.916	7.04672
0.91	7.0777
0.904	6.96121
0.898	6.96094
0.892	6.93281
0.886	6.88201
0.88	6.9712
0.874	6.98014
0.868	6.95831
0.862	7.08364
0.856	7.3718
0.85	7.42825
0.844	7.49024
0.838	7.55163
0.832	7.62159
0.826	7.67605
0.82	7.71958
0.814	7.754
0.808	7.77743
0.802	7.78314
0.796	7.75359
0.79	7.72136
0.784	7.65452
0.778	7.58768
0.772	7.49533
0.766	7.41559
0.76	7.32453
0.754	7.23349
0.748	7.16567
0.742	7.1077
0.736	7.0453
0.73	7.00832
0.724	6.98166
0.718	6.96788
0.712	6.96619
0.706	6.98924
0.7	7.01694
0.694	7.06691
0.688	7.13256
0.682	7.21009
0.676	7.30021
0.67	7.40304
0.664	7.51416
0.658	7.63882
0.652	7.7741
0.646	7.91362
0.64	8.0649
0.634	8.22436
0.628	8.3934
0.622	8.56845
0.616	8.72435
0.61	8.90667
0.604	9.08997
0.598	9.28106
0.592	9.47358
0.586	9.65979
0.58	9.84078
0.574	10.0111
0.568	10.1735
0.562	10.3159
0.556	10.4325
0.55	10.5354
0.544	10.6096
0.538	10.6728
0.532	10.7507
0.526	10.8527
0.52	10.9454
0.514	10.9778
0.508	10.949
0.502	10.8304
0.496	10.6237
0.49	10.696
0.484	10.5637
0.478	10.3189
0.472	10.0323
0.466	9.765
0.46	9.57439
0.454	9.43776
0.448	9.46926
0.442	9.56305
0.436	9.41491
0.43	9.27983
0.424	9.14264
0.418	8.91463
0.412	8.75038
0.406	8.69407
0.4	8.74714
