Name: Triphylite Li(Mn,Fe)PO_4
Type: Mineral
Class: Phosphates
Particle Size: 45-125um
Sample No.: P-4A
Owner: JPL
Wavelength Range: VNIR-SWIR
Origin: USA, New Hampshire, North Graton, Palermo Mine
Measurement: Hemispherical reflectance
X Units: Wavelength (micrometers)
Y Units: Reflectance (percent)
wavelength	value
0.4	38.63
0.403	37.52
0.406	35.03
0.409	39.11
0.412	42.81
0.415	44.33
0.418	45.01
0.421	45.25
0.424	45.46
0.427	45.85
0.43	46.09
0.433	46.02
0.436	45.31
0.439	44.57
0.442	43.98
0.445	43.57
0.448	42.77
0.451	42.02
0.454	41.83
0.457	41.55
0.46	41.93
0.463	42.05
0.466	40.75
0.469	38.55
0.472	42.39
0.475	47.49
0.478	50.01
0.481	50.62
0.484	50.02
0.487	48.84
0.49	47.12
0.493	46.26
0.496	45.21
0.499	47.19
0.502	49.88
0.505	51.51
0.508	52.19
0.511	52.52
0.514	52.8
0.517	53.04
0.52	53.36
0.523	53.65
0.526	53.75
0.529	53.76
0.532	53.87
0.535	53.66
0.538	53.46
0.541	53.07
0.544	52.71
0.547	52.07
0.55	51.72
0.553	51.31
0.556	50.93
0.559	50.69
0.562	50.58
0.565	50.7
0.568	50.73
0.571	50.62
0.574	50.51
0.577	50.5
0.58	50.43
0.583	49.98
0.586	49.56
0.589	49.33
0.592	49
0.595	48.47
0.598	48.05
0.601	48.08
0.604	48.04
0.607	48.44
0.61	49.23
0.613	50.34
0.616	51.49
0.619	52.98
0.622	54.63
0.625	56.28
0.628	57.67
0.631	58.96
0.634	60.21
0.637	60.86
0.64	61.4
0.643	61.69
0.646	61.88
0.649	61.86
0.652	61.58
0.655	61.4
0.658	61.13
0.661	60.76
0.664	60.46
0.667	59.98
0.67	59.71
0.673	59.26
0.676	58.96
0.679	58.66
0.682	58.38
0.685	58.05
0.688	57.78
0.691	57.62
0.694	57.37
0.697	56.99
0.7	56.89
0.703	56.79
0.706	56.7
0.709	56.55
0.712	56.65
0.715	56.52
0.718	56.64
0.721	56.69
0.724	56.66
0.727	56.74
0.73	57.13
0.733	57.22
0.736	57.44
0.739	57.65
0.742	58.03
0.745	58.35
0.748	58.49
0.751	58.89
0.754	59.22
0.757	59.3
0.76	59.43
0.763	59.7
0.766	59.79
0.769	59.87
0.772	59.8
0.775	59.67
0.778	59.51
0.781	59.4
0.784	59.21
0.787	58.82
0.79	58.4
0.793	57.93
0.796	57.51
0.799	56.93
0.808	54.41
0.82	50.66
0.832	46.45
0.844	42.13
0.856	37.46
0.868	33.12
0.88	29.18
0.892	25.45
0.904	22.32
0.916	19.64
0.928	17.24
0.94	15.34
0.952	13.7
0.964	12.39
0.976	11.3
0.988	10.37
1	9.88
1.012	9.2
1.024	8.88
1.036	8.53
1.048	8.44
1.06	8.33
1.072	8.36
1.084	8.47
1.096	8.6
1.108	8.91
1.12	9.25
1.132	9.63
1.144	10.15
1.156	10.7
1.168	11.17
1.18	11.64
1.192	12.1
1.204	12.35
1.216	12.72
1.228	12.75
1.24	12.81
1.252	12.79
1.264	12.7
1.276	12.57
1.288	12.53
1.3	12.41
1.312	12.19
1.324	12.18
1.336	12.12
1.348	12.08
1.36	12.04
1.372	12.06
1.384	12.19
1.396	12.23
1.408	12.4
1.42	12.65
1.432	12.85
1.444	13.15
1.456	13.43
1.468	13.83
1.48	14.24
1.492	14.68
1.504	15.17
1.516	15.78
1.528	16.37
1.54	17.01
1.552	17.8
1.564	18.5
1.576	19.38
1.588	20.28
1.6	21.18
1.612	22.31
1.624	23.33
1.636	24.42
1.648	25.58
1.66	26.81
1.672	28.11
1.684	29.49
1.696	30.91
1.708	32.41
1.72	33.95
1.732	35.43
1.744	36.94
1.756	38.63
1.768	40.17
1.78	41.81
1.792	43.47
1.804	45.23
1.816	46.81
1.828	48.4
1.84	50.08
1.852	51.63
1.864	53.19
1.876	54.77
1.888	55.92
1.9	57.2
1.912	58.46
1.924	59.81
1.936	61.04
1.948	62.42
1.96	63.62
1.972	64.94
1.984	66.24
1.996	67.52
2.008	68.49
2.02	69.77
2.032	70.58
2.044	71.63
2.056	72.43
2.068	73.2
2.08	73.88
2.092	74.62
2.104	75.42
2.116	75.98
2.128	76.45
2.14	76.91
2.152	77.25
2.164	77.43
2.176	77.7
2.188	77.85
2.2	78.05
2.212	78.13
2.224	78.39
2.236	78.4
2.248	78.55
2.26	78.61
2.272	78.74
2.284	78.72
2.296	78.71
2.308	78.77
2.32	78.84
2.332	78.71
2.344	78.53
2.356	78.41
2.368	78.12
2.38	77.88
2.392	77.56
2.404	77.29
2.416	77.03
2.428	76.71
2.44	76.27
2.452	75.88
2.464	75.61
2.476	75.17
2.488	75.06
2.5	74.97
