Name: Clinochlore (Chlorite) (Mg,Al)_6(Si,Al)_4O_10(OH)_8
Type: Mineral
Class: Silicates
Subclass: Phyllosilicates
Particle Size: 45-125um
Sample No.: PS-12A
Owner: JPL
Origin: USA, California, El Dorado County, Flagstaff Hill.
Measurement: Hemispherical reflectance
X Units: Wavelength (micrometers)
Y Units: Reflectance (percent)
wavelength	value
2.5	35.5185
2.494	35.4508
2.488	35.6331
2.482	36.0418
2.476	36.4724
2.47	37.0051
2.464	37.8301
2.458	38.3313
2.452	38.9493
2.446	39.4498
2.44	39.6895
2.434	39.9468
2.428	40.109
2.422	40.0647
2.416	39.9904
2.41	39.8235
2.404	39.4534
2.398	39.2551
2.392	38.9136
2.386	38.4074
2.38	37.5819
2.374	36.4118
2.368	35.0818
2.362	33.7083
2.356	32.5846
2.35	31.7918
2.344	31.5578
2.338	31.8323
2.332	32.4132
2.326	33.11
2.32	33.776
2.314	34.5093
2.308	34.9873
2.302	35.613
2.296	36.3684
2.29	37.1701
2.284	37.8029
2.278	38.0743
2.272	37.7528
2.266	36.904
2.26	35.9756
2.254	35.5485
2.248	36.4714
2.242	38.9455
2.236	41.9191
2.23	44.3398
2.224	45.9619
2.218	47.0859
2.212	47.6457
2.206	48.1995
2.2	48.6713
2.194	48.9448
2.188	49.2548
2.182	49.5805
2.176	49.801
2.17	49.8847
2.164	50.0707
2.158	50.1274
2.152	50.1697
2.146	50.145
2.14	50.0505
2.134	49.8684
2.128	49.6147
2.122	49.4243
2.116	49.2246
2.11	49.0665
2.104	48.9688
2.098	48.8114
2.092	48.7932
2.086	48.5826
2.08	48.4143
2.074	48.2055
2.068	48.0012
2.062	47.672
2.056	47.3991
2.05	47.0901
2.044	46.6862
2.038	46.2118
2.032	45.581
2.026	44.9234
2.02	44.2907
2.014	43.7738
2.008	43.3921
2.002	43.136
1.996	42.9545
1.99	42.9619
1.984	43.0288
1.978	43.2268
1.972	43.2607
1.966	43.2907
1.96	43.0721
1.954	43.0386
1.948	43.124
1.942	43.1899
1.936	43.2989
1.93	43.178
1.924	42.9867
1.918	42.8221
1.912	42.6254
1.906	42.4702
1.9	42.2069
1.894	42.0449
1.888	41.7556
1.882	41.5773
1.876	41.5282
1.87	41.4401
1.864	41.4703
1.858	41.3344
1.852	41.2824
1.846	41.2193
1.84	41.0181
1.834	40.8972
1.828	40.6575
1.822	40.5131
1.816	40.2855
1.81	40.0735
1.804	39.8699
1.798	39.6356
1.792	39.3791
1.786	39.1368
1.78	38.8339
1.774	38.6547
1.768	38.3956
1.762	38.1056
1.756	37.8931
1.75	37.6203
1.744	37.3222
1.738	37.0244
1.732	36.7804
1.726	36.5383
1.72	36.2401
1.714	35.9872
1.708	35.5408
1.702	35.2825
1.696	35.0286
1.69	34.7126
1.684	34.402
1.678	33.9951
1.672	33.7171
1.666	33.4187
1.66	33.0721
1.654	32.7532
1.648	32.4592
1.642	32.2205
1.636	31.855
1.63	31.523
1.624	31.189
1.618	30.8434
1.612	30.523
1.606	30.1282
1.6	29.8215
1.594	29.4033
1.588	29.1472
1.582	28.6901
1.576	28.4596
1.57	28.0883
1.564	27.8195
1.558	27.528
1.552	27.2722
1.546	27.0017
1.54	26.6516
1.534	26.433
1.528	26.2192
1.522	25.98
1.516	25.7754
1.51	25.5947
1.504	25.3236
1.498	25.0501
1.492	24.8346
1.486	24.5156
1.48	24.2342
1.474	23.941
1.468	23.596
1.462	23.2411
1.456	22.9503
1.45	22.6955
1.444	22.4031
1.438	22.1996
1.432	22.0525
1.426	21.8187
1.42	21.2962
1.414	20.4058
1.408	19.8635
1.402	19.6232
1.396	19.813
1.39	20.2537
1.384	20.2468
1.378	20.022
1.372	19.7619
1.366	19.4247
1.36	19.1555
1.354	18.837
1.348	18.5999
1.342	18.2912
1.336	18.0377
1.33	17.7446
1.324	17.5546
1.318	17.2475
1.312	17.0011
1.306	16.7038
1.3	16.4463
1.294	16.2255
1.288	15.9366
1.282	15.6554
1.276	15.4234
1.27	15.207
1.264	14.9786
1.258	14.7256
1.252	14.4645
1.246	14.245
1.24	13.9967
1.234	13.7808
1.228	13.608
1.222	13.3706
1.216	13.2008
1.21	13.0012
1.204	12.8065
1.198	12.6168
1.192	12.4387
1.186	12.2986
1.18	12.1953
1.174	12.0694
1.168	11.836
1.162	11.774
1.156	11.6054
1.15	11.5287
1.144	11.4214
1.138	11.3755
1.132	11.3215
1.126	11.1895
1.12	11.0678
1.114	11.0688
1.108	11.0613
1.102	10.9646
1.096	10.9368
1.09	10.9114
1.084	10.8751
1.078	10.9092
1.072	10.8074
1.066	10.8059
1.06	10.758
1.054	10.7865
1.048	10.7312
1.042	10.6671
1.036	10.6774
1.03	10.6761
1.024	10.5795
1.018	10.598
1.012	10.5282
1.006	10.5128
1	10.3709
0.994	10.3474
0.988	10.2505
0.982	10.1329
0.976	10.0808
0.97	9.93711
0.964	9.86588
0.958	9.75558
0.952	9.63635
0.946	9.51737
0.94	9.4824
0.934	9.32136
0.928	9.27864
0.922	9.19674
0.916	9.0742
0.91	9.111
0.904	8.96491
0.898	9.04432
0.892	9.06716
0.886	9.01915
0.88	9.06608
0.874	9.062
0.868	9.17972
0.862	9.17674
0.856	9.63688
0.85	9.70607
0.844	9.78937
0.838	9.85278
0.832	9.91119
0.826	9.97391
0.82	9.99472
0.814	9.9948
0.808	9.99573
0.802	9.96599
0.796	9.90229
0.79	9.82351
0.784	9.73647
0.778	9.63772
0.772	9.50825
0.766	9.38109
0.76	9.2572
0.754	9.13329
0.748	9.05232
0.742	8.9738
0.736	8.90498
0.73	8.86022
0.724	8.82935
0.718	8.82503
0.712	8.83307
0.706	8.86999
0.7	8.92923
0.694	9.00482
0.688	9.0791
0.682	9.18532
0.676	9.31796
0.67	9.4681
0.664	9.62492
0.658	9.79703
0.652	9.98034
0.646	10.1746
0.64	10.3844
0.634	10.5981
0.628	10.8169
0.622	11.0466
0.616	11.2911
0.61	11.5316
0.604	11.7753
0.598	12.025
0.592	12.2737
0.586	12.5078
0.58	12.7312
0.574	12.9339
0.568	13.1137
0.562	13.263
0.556	13.3826
0.55	13.4461
0.544	13.4762
0.538	13.471
0.532	13.4643
0.526	13.4899
0.52	13.4871
0.514	13.4072
0.508	13.2359
0.502	12.954
0.496	12.5869
0.49	12.5628
0.484	12.3238
0.478	11.9228
0.472	11.4988
0.466	11.1245
0.46	10.8513
0.454	10.6744
0.448	10.6032
0.442	10.4714
0.436	10.1897
0.43	9.89522
0.424	9.57809
0.418	9.25993
0.412	9.02404
0.406	8.87298
0.4	8.82871
