Name: Hemimorphite Zn_4Si_2O_7(OH)_2.H_2O
Type: Mineral
Class: Silicates
Subclass: Sorosilicate
Particle Size: 125-500um
Sample No.: SS-2A
Owner: JPL
Wavelength Range: VNIR-SWIR
Origin: Mexico, Durango, Ojuela Mine
Measurement: Hemispherical reflectance
X Units: Wavelength (micrometers)
Y Units: Reflectance (percent)
wavelength	value
0.4	81.16
0.403	81.36
0.406	81.55
0.409	81.55
0.412	81.57
0.415	81.63
0.418	81.72
0.421	81.83
0.424	81.87
0.427	82.09
0.43	82.07
0.433	82.11
0.436	82.25
0.439	82.5
0.442	82.36
0.445	82.57
0.448	82.67
0.451	82.71
0.454	82.68
0.457	82.78
0.46	82.95
0.463	83.04
0.466	83.28
0.469	83.22
0.472	83.37
0.475	83.36
0.478	83.52
0.481	83.47
0.484	83.65
0.487	83.77
0.49	83.61
0.493	83.68
0.496	83.73
0.499	83.95
0.502	84.09
0.505	84.21
0.508	84.2
0.511	84.13
0.514	84.35
0.517	84.27
0.52	84.41
0.523	84.49
0.526	84.39
0.529	84.38
0.532	84.48
0.535	84.38
0.538	84.55
0.541	84.74
0.544	84.61
0.547	84.6
0.55	84.65
0.553	84.71
0.556	84.8
0.559	84.78
0.562	85.15
0.565	85.12
0.568	85.2
0.571	85.07
0.574	85.04
0.577	84.95
0.58	84.98
0.583	84.96
0.586	84.95
0.589	85.19
0.592	85.22
0.595	85.02
0.598	85.22
0.601	85.26
0.604	85.2
0.607	85.26
0.61	85.26
0.613	85.18
0.616	85.25
0.619	85.32
0.622	85.11
0.625	85.39
0.628	85.31
0.631	85.29
0.634	85.32
0.637	85.38
0.64	85.18
0.643	85.39
0.646	85.44
0.649	85.39
0.652	85.36
0.655	85.43
0.658	85.44
0.661	85.44
0.664	85.44
0.667	85.37
0.67	85.39
0.673	85.51
0.676	85.39
0.679	85.47
0.682	85.47
0.685	85.41
0.688	85.33
0.691	85.43
0.694	85.52
0.697	85.53
0.7	85.42
0.703	85.58
0.706	85.37
0.709	85.34
0.712	85.41
0.715	85.62
0.718	85.36
0.721	85.28
0.724	85.2
0.727	85.2
0.73	85.33
0.733	85.25
0.736	85
0.739	84.72
0.742	84.67
0.745	84.67
0.748	84.86
0.751	84.89
0.754	84.83
0.757	84.85
0.76	84.9
0.763	84.98
0.766	85.09
0.769	85.19
0.772	85.14
0.775	85.16
0.778	85.13
0.781	85.26
0.784	85.23
0.787	85.42
0.79	85.28
0.793	85.44
0.796	85.37
0.799	85.35
0.808	85.53
0.82	85.35
0.832	85.26
0.844	85.01
0.856	85.25
0.868	85.4
0.88	85.34
0.892	85.28
0.904	85.1
0.916	84.84
0.928	84.22
0.94	82.46
0.952	79.75
0.964	76.52
0.976	76.3
0.988	79
1	80.99
1.012	83.07
1.024	84.09
1.036	84.89
1.048	85.09
1.06	85.25
1.072	85.33
1.084	85.11
1.096	84.76
1.108	84.12
1.12	82.96
1.132	81.16
1.144	76.27
1.156	71.71
1.168	73.7
1.18	76.18
1.192	76.69
1.204	77.89
1.216	78.6
1.228	78.98
1.24	79.14
1.252	78.71
1.264	77.89
1.276	77.29
1.288	76.99
1.3	75.68
1.312	73.76
1.324	71.03
1.336	67.81
1.348	64
1.36	59.92
1.372	54.84
1.384	46.29
1.396	35.05
1.408	25.34
1.42	22.5
1.432	26.92
1.444	33.15
1.456	36.86
1.468	39
1.48	44.58
1.492	49.68
1.504	53.64
1.516	56.81
1.528	59.42
1.54	61.71
1.552	63.65
1.564	65.32
1.576	66.73
1.588	68
1.6	69
1.612	69.96
1.624	70.69
1.636	71.38
1.648	72.1
1.66	72.34
1.672	72.54
1.684	72.27
1.696	71.71
1.708	70.64
1.72	68.95
1.732	66.94
1.744	64.2
1.756	60.83
1.768	56.72
1.78	52.22
1.792	48.39
1.804	45.29
1.816	43.14
1.828	41.87
1.84	41.14
1.852	40.69
1.864	37.9
1.876	31.85
1.888	23.81
1.9	15.27
1.912	11.34
1.924	14.08
1.936	19.48
1.948	22.82
1.96	24.09
1.972	25.54
1.984	28.66
1.996	32.52
2.008	36.03
2.02	38.86
2.032	40.93
2.044	42.58
2.056	43.57
2.068	44.34
2.08	44.56
2.092	44.53
2.104	44.11
2.116	43.29
2.128	42
2.14	40.32
2.152	38.36
2.164	36.66
2.176	34.49
2.188	32.57
2.2	30.95
2.212	30.1
2.224	30.21
2.236	31.07
2.248	31.95
2.26	32.59
2.272	32.78
2.284	32.63
2.296	31.75
2.308	30.23
2.32	28.57
2.332	26.43
2.344	23.76
2.356	21.05
2.368	18.65
2.38	16.93
2.392	15.7
2.404	14.86
2.416	14.01
2.428	13.26
2.44	12.6
2.452	11.86
2.464	11.08
2.476	10.2
2.488	9.36
2.5	8.48
