Name: Desert varnished ferruginous sandstone
Type: Rocks
Class: Sedimentary
Subclass: Arenaceous
Particle Size: see additional information
Sample No.: fge2
Owner: University of NSW
Origin: Nundooka Sandstone, Fowlers Gap, western New South Wales, Australia
Description: Fine to medium grained sandstone with kaolinitic matrix
Measurement: Directional hemispherical reflectance
X Units: Wavelength (micrometers)
Y Units: Reflectance (percent)
wavelength	value
14.983	3.6261
14.728	3.6473
14.481	3.9316
14.242	2.7586
14.011	3.2996
13.788	3.2854
13.571	3.6151
13.361	4.0156
13.158	4.2072
12.96	5.2656
12.769	5.9745
12.583	5.1869
12.402	4.0011
12.227	2.9761
12.056	3.4488
11.89	3.8708
11.729	4.2931
11.572	4.7121
11.419	5.1335
11.27	5.3707
11.125	5.9043
10.983	6.6555
10.846	5.9432
10.711	5.7939
10.58	5.888
10.452	6.4378
10.327	7.5398
10.205	9.0523
10.086	10.905
9.9695	13.2
9.8558	14.045
9.7447	15.994
9.636	18.672
9.5297	20.321
9.4257	22.598
9.324	24.907
9.2245	23.982
9.127	22.489
9.0316	20.602
8.9382	20.746
8.8467	22.012
8.757	21.409
8.6692	18.714
8.583	19.383
8.4986	21.213
8.4158	22.058
8.3347	22.733
8.255	23.206
8.1769	22.127
8.1002	16.66
8.025	11.641
7.9512	8.1328
7.8786	5.4785
7.8075	4.0885
7.7375	3.5451
7.6689	2.9198
7.6014	2.4415
7.5351	2.2089
7.47	2.0008
7.4059	1.9184
7.343	1.8384
7.2811	1.8145
7.2203	1.8303
7.1604	1.8187
7.1016	1.8653
7.0437	1.8101
6.9867	1.8738
6.9307	1.8539
6.8755	1.8465
6.8213	1.8809
6.7678	1.9098
6.7152	1.9263
6.6634	2.0037
6.6124	1.9721
6.5622	1.9442
6.5128	2.0437
6.464	2.2061
6.416	2.203
6.3687	2.2142
6.3221	2.1101
6.2762	2.056
6.231	1.9701
6.1863	2.0014
6.1424	2.016
6.099	2.0169
6.0563	1.9853
6.0141	2.0291
5.9725	2.0194
5.9315	2.0677
5.8911	2.2219
5.8512	2.4204
5.8118	2.6379
5.773	2.8899
5.7347	3.0716
5.6969	3.3486
5.6596	3.2234
5.6227	3.0632
5.5864	3.0263
5.5505	3.1888
5.5151	3.2835
5.4801	3.4782
5.4455	3.5716
5.4114	3.3858
5.3778	3.1575
5.3445	3.1604
5.3116	3.2125
5.2792	3.3174
5.2471	3.4606
5.2154	3.7867
5.1842	3.8837
5.1532	3.8406
5.1227	3.8749
5.0925	3.7991
5.0627	3.7893
5.0332	3.8091
5.004	3.7833
4.9752	3.9604
4.9467	4.2922
4.9186	4.6766
4.8907	6.0448
4.8632	7.8506
4.836	9.1758
4.809	10.129
4.7824	10.985
4.7561	11.64
4.7301	12.032
4.7043	11.635
4.6788	10.756
4.6536	12.139
4.6287	13.6
4.604	14.418
4.5796	14.748
4.5555	14.479
4.5316	13.265
4.508	11.342
4.4846	10.265
4.4614	10.093
4.4385	10.891
4.4158	11.614
4.3934	12.653
4.3711	13.963
4.3491	15.056
4.3273	15.582
4.3058	15.496
4.2844	15.382
4.2633	15.744
4.2424	16.116
4.2216	16.248
4.2011	16.323
4.1808	16.583
4.1606	17.012
4.1407	17.329
4.1209	17.699
4.1014	18.145
4.082	18.509
4.0628	18.709
4.0438	18.68
4.025	18.498
4.0063	18.394
3.9878	18.476
3.9695	18.672
3.9513	18.85
3.9333	18.949
3.9155	18.901
3.8979	18.649
3.8804	18.291
3.863	17.934
3.8458	17.712
3.8288	17.571
3.8119	17.401
3.7951	17.131
3.7785	16.766
3.7621	16.299
3.7458	15.897
3.7296	15.671
3.7136	15.553
3.6977	15.473
3.6819	15.406
3.6663	15.266
3.6508	15.093
3.6355	14.791
3.6202	14.469
3.6051	14.132
3.5901	13.836
3.5753	13.493
3.5605	13.146
3.5459	12.734
3.5314	12.335
3.5171	11.751
3.5028	11.009
3.4887	10.906
3.4746	10.653
3.4607	10.453
3.4469	10.062
3.4332	9.5807
3.4196	9.0359
3.4061	8.9787
3.3928	9.0112
3.3795	8.857
3.3663	8.8292
3.3533	8.8504
3.3403	8.7437
3.3274	8.5764
3.3147	8.3483
3.302	8.1288
3.2894	7.8134
3.277	7.5113
3.2646	7.2669
3.2523	7.0285
3.2401	6.8632
3.228	6.5577
3.216	6.4457
3.204	6.2341
3.1922	6.0653
3.1805	5.865
3.1688	5.684
3.1572	5.3922
3.1457	5.2613
3.1343	5.1113
3.123	5.0259
3.1117	4.8487
3.1006	4.7002
3.0895	4.6506
3.0785	4.5817
3.0675	4.5203
3.0567	4.453
3.0459	4.3861
3.0352	4.2346
3.0246	4.2918
3.014	4.1832
3.0036	4.1966
2.9932	4.1319
2.9828	4.048
2.9726	3.9911
2.9624	3.8891
2.9523	3.8884
2.9422	3.873
2.9322	3.8892
2.9223	3.926
2.9124	3.901
2.9027	3.9711
2.8929	3.9854
2.8833	4.0227
2.8737	3.9917
2.8642	4.1109
2.8547	4.0796
2.8453	4.0999
2.836	4.195
2.8267	4.2348
2.8175	4.1356
2.8083	4.0675
2.7992	3.965
2.7902	3.757
2.7812	3.6628
2.7723	3.5267
2.7634	3.1664
2.7546	3.0926
2.7458	3.3538
2.7371	3.4426
2.7285	3.785
2.7199	4.3911
2.7114	4.4965
2.7029	4.0983
2.6945	6.4912
2.6861	11.544
2.6778	15.966
2.6695	19.095
2.6613	21.395
2.6531	22.96
2.645	24.231
2.6369	25.208
2.6289	26.127
2.6209	26.678
2.613	27.069
2.6051	27.387
2.5973	27.758
2.5895	27.962
2.5817	28.275
2.5741	28.569
2.5664	28.858
2.5588	29.293
2.5513	29.563
2.5437	29.59
2.5363	29.873
2.5289	29.973
2.5215	30.212
2.5141	30.363
2.5068	30.464
2.4996	30.811
2.4924	30.908
2.4852	31.222
2.4781	31.714
2.471	32.105
2.464	32.446
2.4569	32.778
2.45	33.102
2.4431	33.528
2.4362	34.186
2.4293	34.947
2.4225	35.614
2.4157	36.175
2.409	36.545
2.4023	36.682
2.3956	36.666
2.389	36.612
2.3824	36.648
2.3759	37.155
2.3694	37.603
2.3629	37.75
2.3564	37.791
2.35	37.984
2.3436	38.487
2.3373	39.063
2.331	39.33
2.3247	39.751
2.3185	39.999
2.3123	40.302
2.3061	40.818
2.3	41.363
2.2939	41.734
2.2878	42.235
2.2818	42.628
2.2757	43.039
2.2698	43.362
2.2638	43.456
2.2579	43.541
2.252	43.456
2.2462	43.588
2.2403	43.391
2.2345	43.284
2.2288	42.93
2.2231	42.199
2.2173	40.961
2.2117	38.182
2.206	37.096
2.2004	39.184
2.1948	40.093
2.1893	40.803
2.1837	41.428
2.1782	41.859
2.1727	42.193
2.1673	42.359
2.1619	42.727
2.1565	43.529
2.1511	44.589
2.1458	45.709
2.1404	46.51
2.1352	47.018
2.1299	47.239
2.1247	47.44
2.1194	47.638
2.1143	47.483
2.1091	47.6
2.104	47.945
2.0988	48.051
2.0938	48.012
2.0887	48.162
2.0837	48.039
