Name: Celestite SrSO_4
Type: Mineral
Class: Sulfates
Particle Size: 45-125um
Sample No.: SO-5A
Owner: JPL
Wavelength Range: VNIR-SWIR
Origin: USA, Utah, Emery County
Measurement: Hemispherical reflectance
X Units: Wavelength (micrometers)
Y Units: Reflectance (percent)
wavelength	value
0.4	83.75
0.403	84.05
0.406	84.8
0.409	84.68
0.412	85.03
0.415	85.21
0.418	85.03
0.421	85.5
0.424	85.09
0.427	85.8
0.43	85.68
0.433	85.62
0.436	85.9
0.439	85.8
0.442	86.25
0.445	86.2
0.448	86.31
0.451	86.67
0.454	86.85
0.457	87.25
0.46	87.09
0.463	87.33
0.466	86.7
0.469	87.05
0.472	87.05
0.475	87.06
0.478	87.07
0.481	87.18
0.484	87.37
0.487	87.14
0.49	87.72
0.493	87.1
0.496	87.67
0.499	87.74
0.502	87.27
0.505	87.74
0.508	87.27
0.511	88.03
0.514	86.87
0.517	87.45
0.52	87.21
0.523	87.39
0.526	87.8
0.529	87.27
0.532	87.92
0.535	86.76
0.538	87.8
0.541	87.16
0.544	87.51
0.547	86.93
0.55	86.87
0.553	87.33
0.556	86.81
0.559	86.98
0.562	87.39
0.565	86.87
0.568	87.33
0.571	86.93
0.574	86.93
0.577	86.98
0.58	86.52
0.583	87.04
0.586	86.58
0.589	86.93
0.592	86.34
0.595	86.58
0.598	86.7
0.601	86.64
0.604	87.16
0.607	86.4
0.61	87.16
0.613	86.87
0.616	87.62
0.619	87.1
0.622	86.98
0.625	87.21
0.628	87.27
0.631	87.39
0.634	86.93
0.637	87.8
0.64	87.33
0.643	87.98
0.646	87.8
0.649	88.03
0.652	88.33
0.655	88.09
0.658	88.79
0.661	88.27
0.664	89.14
0.667	88.56
0.67	89.2
0.673	89.02
0.676	89.31
0.679	89.31
0.682	89.14
0.685	89.78
0.688	89.43
0.691	90.25
0.694	89.9
0.697	90.54
0.7	89.84
0.703	90.48
0.706	90.08
0.709	90.65
0.712	89.96
0.715	90.54
0.718	90.42
0.721	90.54
0.724	90.54
0.727	90.89
0.73	90.65
0.733	90.77
0.736	91.06
0.739	90.65
0.742	91.24
0.745	90.71
0.748	91.53
0.751	91
0.754	91.36
0.757	91.12
0.76	91.47
0.763	91.41
0.766	91.06
0.769	91.77
0.772	91.53
0.775	91.82
0.778	91.71
0.781	92.11
0.784	91.59
0.787	92.34
0.79	92.05
0.793	92.4
0.796	92.46
0.799	91.59
0.808	91.82
0.82	91.99
0.832	92.05
0.844	92.28
0.856	92.4
0.868	92.46
0.88	92.34
0.892	92.4
0.904	92.46
0.916	92.58
0.928	92.58
0.94	92.46
0.952	92.64
0.964	92.64
0.976	92.69
0.988	92.75
1	92.52
1.012	92.64
1.024	92.69
1.036	92.93
1.048	92.93
1.06	92.99
1.072	92.81
1.084	92.75
1.096	92.93
1.108	92.93
1.12	92.93
1.132	92.81
1.144	92.87
1.156	92.92
1.168	92.95
1.18	92.87
1.192	92.91
1.204	93
1.216	93.06
1.228	92.95
1.24	92.84
1.252	93
1.264	92.98
1.276	92.91
1.288	92.82
1.3	92.97
1.312	92.95
1.324	92.92
1.336	92.85
1.348	92.71
1.36	92.71
1.372	92.77
1.384	92.71
1.396	92.59
1.408	92.73
1.42	92.69
1.432	92.82
1.444	92.67
1.456	92.56
1.468	92.5
1.48	92.62
1.492	92.62
1.504	92.56
1.516	92.62
1.528	92.68
1.54	92.86
1.552	92.8
1.564	92.62
1.576	92.74
1.588	92.86
1.6	92.97
1.612	92.89
1.624	92.81
1.636	92.8
1.648	92.88
1.66	92.86
1.672	92.9
1.684	92.81
1.696	92.91
1.708	92.96
1.72	92.9
1.732	92.84
1.744	92.78
1.756	92.78
1.768	92.9
1.78	92.84
1.792	92.67
1.804	92.75
1.816	92.78
1.828	92.64
1.84	92.54
1.852	92.41
1.864	92.44
1.876	92.42
1.888	92.22
1.9	92.03
1.912	91.83
1.924	91.86
1.936	91.96
1.948	91.99
1.96	92.22
1.972	92.39
1.984	92.61
1.996	92.88
2.008	92.89
2.02	92.92
2.032	93.17
2.044	93.19
2.056	93.24
2.068	93.24
2.08	93.35
2.092	93.53
2.104	93.63
2.116	93.69
2.128	93.44
2.14	93.34
2.152	93.31
2.164	92.96
2.176	92.85
2.188	92.66
2.2	92.72
2.212	92.68
2.224	92.81
2.236	92.76
2.248	92.77
2.26	92.79
2.272	92.83
2.284	92.89
2.296	93.22
2.308	93.19
2.32	93.47
2.332	93.58
2.344	93.38
2.356	93.27
2.368	92.99
2.38	92.97
2.392	93.04
2.404	92.86
2.416	92.73
2.428	92.7
2.44	92.79
2.452	92.6
2.464	92.52
2.476	92.61
2.488	92.86
2.5	92.62
