Name: Realgar AsS
Type: Mineral
Class: Sulfides
Particle Size: 0-45um
Sample No.: S-3A
Owner: JPL
Wavelength Range: VNIR-SWIR
Measurement: Hemispherical reflectance
X Units: Wavelength (micrometers)
Y Units: Reflectance (percent)
wavelength	value
0.4	5.05
0.403	5.03
0.406	4.97
0.409	5.13
0.412	5.09
0.415	4.97
0.418	5.01
0.421	4.92
0.424	4.91
0.427	5.08
0.43	5.06
0.433	4.96
0.436	4.97
0.439	4.91
0.442	4.78
0.445	4.96
0.448	4.96
0.451	4.9
0.454	4.87
0.457	4.81
0.46	4.88
0.463	4.84
0.466	4.77
0.469	4.76
0.472	4.75
0.475	4.87
0.478	4.81
0.481	4.83
0.484	4.82
0.487	4.87
0.49	4.79
0.493	5
0.496	4.92
0.499	4.9
0.502	4.95
0.505	5.01
0.508	5.15
0.511	5.26
0.514	5.45
0.517	5.47
0.52	5.68
0.523	5.84
0.526	6.24
0.529	6.47
0.532	7.04
0.535	7.53
0.538	8.25
0.541	9.07
0.544	10.24
0.547	11.59
0.55	13.35
0.553	15.39
0.556	17.62
0.559	19.45
0.562	23.84
0.565	27.5
0.568	31.44
0.571	35.44
0.574	39.76
0.577	44.02
0.58	48.45
0.583	52.57
0.586	56.26
0.589	59.85
0.592	63.02
0.595	65.65
0.598	68.09
0.601	70.28
0.604	72.03
0.607	73.53
0.61	74.69
0.613	75.68
0.616	76.42
0.619	77.1
0.622	77.82
0.625	78.27
0.628	78.76
0.631	79.01
0.634	79.32
0.637	79.44
0.64	79.8
0.643	80.04
0.646	80.21
0.649	80.35
0.652	80.47
0.655	80.7
0.658	80.84
0.661	80.85
0.664	81.07
0.667	80.98
0.67	81.09
0.673	81.32
0.676	81.49
0.679	81.56
0.682	81.63
0.685	81.6
0.688	81.79
0.691	81.92
0.694	82.06
0.697	82.1
0.7	82.17
0.703	82.31
0.706	82.66
0.709	82.68
0.712	82.8
0.715	82.86
0.718	82.99
0.721	83.19
0.724	83.4
0.727	83.4
0.73	83.5
0.733	83.73
0.736	83.89
0.739	84.15
0.742	84.36
0.745	84.61
0.748	84.62
0.751	84.99
0.754	85.07
0.757	85.31
0.76	85.39
0.763	85.71
0.766	85.77
0.769	85.93
0.772	86.1
0.775	86.31
0.778	86.45
0.781	86.36
0.784	86.6
0.787	86.58
0.79	86.77
0.793	86.88
0.796	87.08
0.799	87.07
0.808	87.43
0.82	87.57
0.832	87.69
0.844	87.99
0.856	88.09
0.868	88.25
0.88	88.31
0.892	88.44
0.904	88.43
0.916	88.48
0.928	88.56
0.94	88.72
0.952	88.72
0.964	88.9
0.976	88.85
0.988	88.96
1	88.96
1.012	89.01
1.024	89.14
1.036	89.19
1.048	89.14
1.06	89.27
1.072	89.3
1.084	89.42
1.096	89.45
1.108	89.5
1.12	89.64
1.132	89.73
1.144	89.65
1.156	89.73
1.168	89.7
1.18	89.8
1.192	89.73
1.204	89.95
1.216	89.87
1.228	90.01
1.24	90.1
1.252	90.29
1.264	90.22
1.276	90.37
1.288	90.45
1.3	90.43
1.312	90.53
1.324	90.52
1.336	90.66
1.348	90.71
1.36	90.8
1.372	90.93
1.384	90.93
1.396	90.86
1.408	91
1.42	91.02
1.432	91.1
1.444	91.18
1.456	91.3
1.468	91.37
1.48	91.48
1.492	91.65
1.504	91.65
1.516	91.83
1.528	91.89
1.54	91.94
1.552	92
1.564	92.12
1.576	92.12
1.588	92.12
1.6	92.29
1.612	92.27
1.624	92.25
1.636	92.34
1.648	92.42
1.66	92.58
1.672	92.56
1.684	92.59
1.696	92.57
1.708	92.62
1.72	92.68
1.732	92.62
1.744	92.57
1.756	92.57
1.768	92.57
1.78	92.51
1.792	92.68
1.804	92.66
1.816	92.62
1.828	92.59
1.84	92.6
1.852	92.48
1.864	92.45
1.876	92.25
1.888	91.95
1.9	91.54
1.912	91.21
1.924	91.03
1.936	90.84
1.948	91
1.96	91.12
1.972	91.36
1.984	91.53
1.996	91.91
2.008	92.03
2.02	92.35
2.032	92.48
2.044	92.5
2.056	92.49
2.068	92.56
2.08	92.83
2.092	92.77
2.104	93.06
2.116	93.23
2.128	93.17
2.14	93.08
2.152	93.05
2.164	92.82
2.176	92.72
2.188	92.65
2.2	92.59
2.212	92.44
2.224	92.52
2.236	92.4
2.248	92.54
2.26	92.39
2.272	92.43
2.284	92.48
2.296	92.48
2.308	92.45
2.32	92.63
2.332	92.74
2.344	92.58
2.356	92.67
2.368	92.55
2.38	92.54
2.392	92.39
2.404	92.38
2.416	92.35
2.428	92.16
2.44	92.14
2.452	91.96
2.464	91.87
2.476	91.79
2.488	92.15
2.5	92.47
