Name: Anorthite (Feldspar) (NaSi,CaAl)AlSi_2O_8
Type: Mineral
Class: Silicates
Subclass: Tectosilicates
Particle Size: 0-45um
Sample No.: TS-5A
Owner: JPL
Wavelength Range: VNIR-SWIR
Measurement: Hemispherical reflectance
X Units: Wavelength (micrometers)
Y Units: Reflectance (percent)
wavelength	value
0.4	58.47
0.403	58.85
0.406	59.28
0.409	59.73
0.412	60.05
0.415	60.44
0.418	60.78
0.421	61.08
0.424	61.42
0.427	61.85
0.43	62.31
0.433	62.35
0.436	62.93
0.439	63.18
0.442	63.32
0.445	63.56
0.448	64
0.451	64.06
0.454	64.22
0.457	64.52
0.46	64.66
0.463	64.82
0.466	65.2
0.469	65.25
0.472	65.28
0.475	65.52
0.478	65.73
0.481	65.86
0.484	66.12
0.487	66.26
0.49	66.39
0.493	66.42
0.496	66.76
0.499	66.87
0.502	66.96
0.505	67.17
0.508	67.56
0.511	67.39
0.514	67.65
0.517	67.94
0.52	68.14
0.523	68.05
0.526	68.25
0.529	68.33
0.532	68.2
0.535	68.44
0.538	68.47
0.541	68.52
0.544	68.55
0.547	68.86
0.55	68.74
0.553	69
0.556	69.05
0.559	69
0.562	69.46
0.565	69.43
0.568	69.21
0.571	69.18
0.574	69.19
0.577	69.06
0.58	69.1
0.583	69.1
0.586	69.02
0.589	69.1
0.592	69.35
0.595	69.37
0.598	69.15
0.601	69.44
0.604	69.41
0.607	69.34
0.61	69.38
0.613	69.46
0.616	69.28
0.619	69.26
0.622	69.25
0.625	69.28
0.628	69.35
0.631	69.47
0.634	69.49
0.637	69.4
0.64	69.45
0.643	69.43
0.646	69.43
0.649	69.29
0.652	69.53
0.655	69.5
0.658	69.3
0.661	69.39
0.664	69.41
0.667	69.47
0.67	69.45
0.673	69.51
0.676	69.43
0.679	69.59
0.682	69.48
0.685	69.46
0.688	69.55
0.691	69.53
0.694	69.65
0.697	69.56
0.7	69.6
0.703	69.59
0.706	69.49
0.709	69.54
0.712	69.62
0.715	69.48
0.718	69.59
0.721	69.65
0.724	69.58
0.727	69.52
0.73	69.75
0.733	69.72
0.736	69.72
0.739	69.67
0.742	69.62
0.745	69.67
0.748	69.7
0.751	69.67
0.754	69.57
0.757	69.71
0.76	69.61
0.763	69.42
0.766	69.58
0.769	69.65
0.772	69.65
0.775	69.64
0.778	69.74
0.781	69.63
0.784	69.6
0.787	69.67
0.79	69.73
0.793	69.71
0.796	69.74
0.799	69.89
0.808	69.72
0.82	69.54
0.832	69.57
0.844	69.56
0.856	69.58
0.868	69.58
0.88	69.51
0.892	69.54
0.904	69.58
0.916	69.58
0.928	69.66
0.94	69.66
0.952	69.66
0.964	69.81
0.976	69.76
0.988	69.66
1	69.74
1.012	69.77
1.024	69.63
1.036	69.58
1.048	69.59
1.06	69.54
1.072	69.51
1.084	69.54
1.096	69.62
1.108	69.55
1.12	69.67
1.132	69.61
1.144	69.5
1.156	69.52
1.168	69.58
1.18	69.54
1.192	69.61
1.204	69.66
1.216	69.55
1.228	69.7
1.24	69.79
1.252	69.87
1.264	69.88
1.276	69.78
1.288	69.97
1.3	70.06
1.312	70.02
1.324	70
1.336	70.01
1.348	70.06
1.36	70.23
1.372	70.18
1.384	69.95
1.396	69.67
1.408	69.69
1.42	70.07
1.432	70.23
1.444	70.34
1.456	70.39
1.468	70.5
1.48	70.47
1.492	70.55
1.504	70.6
1.516	70.7
1.528	70.77
1.54	70.75
1.552	70.78
1.564	70.84
1.576	70.78
1.588	70.9
1.6	70.96
1.612	70.85
1.624	70.84
1.636	70.91
1.648	70.96
1.66	71.05
1.672	70.97
1.684	70.94
1.696	70.97
1.708	71.15
1.72	70.97
1.732	71
1.744	70.86
1.756	70.92
1.768	70.86
1.78	70.96
1.792	70.99
1.804	70.91
1.816	70.88
1.828	70.85
1.84	70.89
1.852	70.83
1.864	70.71
1.876	70.53
1.888	70.25
1.9	69.77
1.912	69.68
1.924	69.75
1.936	69.81
1.948	69.83
1.96	69.9
1.972	70.03
1.984	70.24
1.996	70.37
2.008	70.51
2.02	70.63
2.032	70.66
2.044	70.79
2.056	70.83
2.068	70.86
2.08	70.97
2.092	70.96
2.104	71.22
2.116	71.32
2.128	71.35
2.14	71.13
2.152	70.78
2.164	70.53
2.176	70.24
2.188	70.12
2.2	70.07
2.212	69.92
2.224	69.78
2.236	69.35
2.248	69.22
2.26	69.09
2.272	68.94
2.284	68.8
2.296	68.65
2.308	68.24
2.32	68
2.332	67.47
2.344	67.16
2.356	67.27
2.368	67.65
2.38	68.14
2.392	68.28
2.404	68.45
2.416	68.37
2.428	68.24
2.44	68.13
2.452	67.9
2.464	67.59
2.476	67.65
2.488	67.72
2.5	67.71
