Name: Zircon ZrSiO_4
Type: Mineral
Class: Silicates
Subclass: Nesosilicates
Particle Size: 0-45um
Sample No.: NS-9A
Owner: JPL
Origin: Malawi, Southern Malawi, Blantyre-Limbe District.
Measurement: Hemispherical reflectance
X Units: Wavelength (micrometers)
Y Units: Reflectance (percent)
wavelength	value
2.5	68.576
2.494	68.5837
2.488	68.6261
2.482	68.8638
2.476	68.9114
2.47	68.8635
2.464	69.1764
2.458	69.2445
2.452	69.2284
2.446	69.4733
2.44	69.5622
2.434	69.7124
2.428	69.6813
2.422	69.929
2.416	69.9006
2.41	70.0649
2.404	70.1238
2.398	70.0886
2.392	70.1393
2.386	70.298
2.38	70.4345
2.374	70.5246
2.368	70.655
2.362	70.8394
2.356	70.9834
2.35	70.9651
2.344	71.0412
2.338	71.0924
2.332	71.1658
2.326	71.1411
2.32	71.1238
2.314	71.0785
2.308	71.1401
2.302	71.2033
2.296	71.1489
2.29	71.1617
2.284	71.2315
2.278	71.2596
2.272	71.1876
2.266	71.2895
2.26	71.2401
2.254	71.2527
2.248	71.3408
2.242	71.3456
2.236	71.5423
2.23	71.4655
2.224	71.538
2.218	71.4595
2.212	71.4325
2.206	71.411
2.2	71.7289
2.194	71.8427
2.188	71.9152
2.182	72.0761
2.176	72.1659
2.17	72.2818
2.164	72.4657
2.158	72.6721
2.152	72.7973
2.146	72.9074
2.14	72.9211
2.134	72.8976
2.128	72.7393
2.122	72.5117
2.116	72.2762
2.11	71.912
2.104	71.7418
2.098	71.5095
2.092	71.4603
2.086	71.3798
2.08	71.3464
2.074	71.404
2.068	71.4267
2.062	71.6029
2.056	71.8217
2.05	72.0046
2.044	72.0814
2.038	72.2195
2.032	72.3556
2.026	72.3814
2.02	72.4414
2.014	72.5076
2.008	72.4583
2.002	72.4847
1.996	72.5274
1.99	72.3977
1.984	72.3354
1.978	72.2428
1.972	72.2212
1.966	72.1777
1.96	72.1298
1.954	72.0919
1.948	72.0517
1.942	72.1194
1.936	72.1265
1.93	72.2048
1.924	72.2107
1.918	72.2637
1.912	72.4246
1.906	72.6869
1.9	72.8705
1.894	73.1199
1.888	73.2451
1.882	73.335
1.876	73.4436
1.87	73.4125
1.864	73.576
1.858	73.5184
1.852	73.5959
1.846	73.5719
1.84	73.6481
1.834	73.6301
1.828	73.5788
1.822	73.6151
1.816	73.5981
1.81	73.5985
1.804	73.6512
1.798	73.654
1.792	73.5294
1.786	73.5556
1.78	73.5555
1.774	73.5372
1.768	73.5197
1.762	73.5164
1.756	73.4456
1.75	73.4396
1.744	73.4698
1.738	73.4771
1.732	73.4519
1.726	73.4759
1.72	73.3836
1.714	73.3732
1.708	73.2737
1.702	73.3176
1.696	73.23
1.69	73.2741
1.684	73.2587
1.678	73.216
1.672	73.1035
1.666	73.0211
1.66	73.0363
1.654	73.1826
1.648	73.2545
1.642	73.1437
1.636	73.2244
1.63	73.2002
1.624	73.2881
1.618	73.2172
1.612	73.3071
1.606	73.2885
1.6	73.2922
1.594	73.215
1.588	73.2188
1.582	73.1404
1.576	73.0262
1.57	72.9439
1.564	72.8963
1.558	72.7884
1.552	72.6929
1.546	72.3019
1.54	72.0513
1.534	71.955
1.528	71.8667
1.522	71.6846
1.516	71.2101
1.51	69.8805
1.504	68.6006
1.498	69.5662
1.492	70.4604
1.486	70.9475
1.48	71.0952
1.474	71.3106
1.468	72.0039
1.462	71.8089
1.456	71.9601
1.45	72.1268
1.444	72.1841
1.438	72.1471
1.432	72.1773
1.426	72.1887
1.42	72.1563
1.414	72.0863
1.408	72.2279
1.402	72.124
1.396	72.1345
1.39	72.2163
1.384	72.1712
1.378	72.2203
1.372	72.0833
1.366	71.945
1.36	71.7216
1.354	71.558
1.348	71.4685
1.342	71.4135
1.336	71.3925
1.33	71.3236
1.324	71.3944
1.318	71.4516
1.312	71.5326
1.306	71.5457
1.3	71.6178
1.294	71.6022
1.288	71.683
1.282	71.6425
1.276	71.656
1.27	71.6637
1.264	71.6817
1.258	71.6376
1.252	71.6718
1.246	71.6173
1.24	71.5931
1.234	71.5841
1.228	71.5494
1.222	71.5033
1.216	71.4072
1.21	71.3276
1.204	71.1965
1.198	71.0452
1.192	70.873
1.186	70.6126
1.18	70.2948
1.174	70.0076
1.168	69.5552
1.162	69.0475
1.156	68.4187
1.15	67.8651
1.144	67.3015
1.138	66.82
1.132	66.4684
1.126	65.59
1.12	64.4517
1.114	64.3181
1.108	65.0349
1.102	65.5864
1.096	65.7856
1.09	65.9194
1.084	66.0255
1.078	65.9898
1.072	65.9145
1.066	65.6879
1.06	65.5286
1.054	65.5216
1.048	65.5717
1.042	65.7124
1.036	65.9257
1.03	65.9163
1.024	65.901
1.018	65.943
1.012	65.8546
1.006	65.865
1	65.9665
0.994	65.9226
0.988	65.9212
0.982	65.6992
0.976	65.5844
0.97	65.6065
0.964	65.5637
0.958	65.5856
0.952	65.6207
0.946	65.5496
0.94	65.5122
0.934	65.4083
0.928	65.2749
0.922	65.0466
0.916	64.8544
0.91	64.8942
0.904	64.9869
0.898	64.8853
0.892	64.9781
0.886	64.8807
0.88	64.9681
0.874	65.0544
0.868	65.0038
0.862	65.0792
0.856	65.2672
0.85	65.2355
0.844	65.3516
0.838	65.4381
0.832	65.6321
0.826	65.7514
0.82	65.9579
0.814	66.0836
0.808	66.2018
0.802	66.26
0.796	66.308
0.79	66.3357
0.784	66.316
0.778	66.2379
0.772	66.1571
0.766	66.0193
0.76	65.8385
0.754	65.6472
0.748	65.3635
0.742	65.0386
0.736	64.673
0.73	64.2748
0.724	63.8115
0.718	63.3502
0.712	62.8614
0.706	62.3865
0.7	61.8886
0.694	61.23
0.688	60.4312
0.682	60.3073
0.676	59.9964
0.67	59.3945
0.664	58.3563
0.658	57.0124
0.652	55.7999
0.646	56.6454
0.64	56.5728
0.634	56.2118
0.628	55.714
0.622	55.066
0.616	54.4425
0.61	53.9947
0.604	53.4147
0.598	52.7332
0.592	51.8744
0.586	51.1131
0.58	50.4933
0.574	49.7008
0.568	48.7854
0.562	47.741
0.556	46.7021
0.55	45.6097
0.544	44.4471
0.538	43.2678
0.532	42.2605
0.526	41.2631
0.52	40.2156
0.514	39.2285
0.508	38.3845
0.502	37.6305
0.496	36.8766
0.49	36.0994
0.484	35.4123
0.478	34.9042
0.472	34.5502
0.466	34.229
0.46	33.8945
0.454	33.4826
0.448	32.9258
0.442	32.0606
0.436	30.9618
0.43	29.8323
0.424	28.8644
0.418	28.0946
0.412	27.4372
0.406	26.8026
0.4	26.1074
