Name: Labradorite (Feldspar) (NaSi,CaAl)AlSi_2O_8
Type: Mineral
Class: Silicates
Subclass: Tectosilicates
Particle Size: 125-500um
Sample No.: TS-2A
Owner: JPL
Origin: Mexico, Sonora, Pinacate
Measurement: Hemispherical reflectance
X Units: Wavelength (micrometers)
Y Units: Reflectance (percent)
wavelength	value
15.385	3.4705
15.116	2.2276
14.856	2.6233
14.605	2.7343
14.362	2.9273
14.128	3.3728
13.9	3.0828
13.68	3.4673
13.467	3.6812
13.26	3.6603
13.06	3.3751
12.866	3.1265
12.677	3.1966
12.494	3.5637
12.316	3.966
12.143	4.795
11.974	5.4308
11.811	5.8479
11.651	6.1132
11.496	6.6064
11.345	7.7164
11.198	9.1335
11.055	10.7686
10.915	12.0114
10.779	12.7355
10.647	13.5959
10.517	13.7072
10.39	13.3861
10.267	13.0483
10.146	13.1796
10.029	13.0993
9.914	12.5594
9.801	11.67
9.691	10.7218
9.584	9.5503
9.479	8.5279
9.376	8.1781
9.275	7.6863
9.177	7.8191
9.08	8.6121
8.986	9.5026
8.893	10.0307
8.803	9.818
8.714	9.2962
8.627	8.8964
8.542	8.4045
8.458	7.7663
8.376	6.3448
8.296	4.0865
8.217	1.3393
8.139	0.3667
8.063	0.2765
7.989	0.0687
7.916	0.0737
7.844	0
7.773	0.256
7.704	0.2946
7.636	0.5205
7.569	0.5154
7.503	0.6338
7.439	0.6987
7.375	0.862
7.313	0.8313
7.252	0.9849
7.191	1.003
7.132	1.1135
7.073	1.2201
7.016	1.239
6.96	1.4428
6.904	1.4745
6.849	1.5326
6.795	1.6035
6.742	1.5521
6.69	1.68
6.639	1.8582
6.588	1.7564
6.538	1.7791
6.489	2.0234
6.441	1.787
6.393	1.7716
6.346	1.997
6.3	1.9802
6.254	1.9507
6.209	1.9016
6.165	2.0828
6.121	2.1187
6.078	2.1069
6.036	2.0854
5.994	2.1273
5.953	2.2398
5.912	2.3218
5.872	2.2209
5.832	2.4028
5.793	2.4542
5.755	2.5817
5.716	2.7584
5.679	2.7799
5.642	3.0036
5.605	2.9608
5.569	3.1133
5.533	3.2791
5.498	3.3321
5.463	3.5827
5.429	3.598
5.395	3.7275
5.362	3.9934
5.329	4.2549
5.296	4.475
5.264	4.7658
5.232	5.1813
5.2	5.5317
5.169	5.9395
5.139	6.3706
5.108	7.036
5.078	7.7397
5.049	8.1939
5.019	8.8201
4.99	9.3312
4.962	9.8726
4.933	10.2866
4.905	10.6219
4.878	11.0916
4.85	11.4636
4.823	11.892
4.796	12.3462
4.77	12.8621
4.744	13.4674
4.718	14.1667
4.692	15.0059
4.667	15.8301
4.642	16.9364
4.617	18.2635
4.592	19.5998
4.568	21.0615
4.544	22.5812
4.52	23.9803
4.497	25.528
4.474	27.0442
4.45	28.432
4.428	29.8234
4.405	31.2942
4.383	32.6155
4.361	33.9743
4.339	35.5412
4.317	37.042
4.296	38.4486
4.274	40.1423
4.253	42.2666
4.233	43.4477
4.212	45.3319
4.191	46.8773
4.171	47.9659
4.151	48.9819
4.131	49.6986
4.112	50.5752
4.092	51.1734
4.073	51.9726
4.054	52.7379
4.035	53.5363
4.016	54.3845
3.998	55.1215
3.979	55.6839
3.961	56.2607
3.943	56.7491
3.925	57.2924
3.907	57.7661
3.89	58.0872
3.872	58.7102
3.855	58.8742
3.838	59.2122
3.821	59.4548
3.804	59.7643
3.787	59.7499
3.771	59.7769
3.754	59.818
3.738	59.6247
3.722	59.4266
3.706	59.1985
3.69	58.9039
3.675	58.583
3.659	58.2887
3.644	57.7698
3.628	57.4421
3.613	56.9292
3.598	56.5156
3.583	55.9937
3.568	55.4319
3.554	54.8909
3.539	54.1634
3.525	53.5959
3.51	52.8632
3.496	52.1163
3.482	51.5356
3.468	50.9823
3.454	50.393
3.441	49.6455
3.427	48.8841
3.413	48.2142
3.4	47.7353
3.387	47.2698
3.373	46.5087
3.36	46.1861
3.347	45.7391
3.334	45.3651
3.321	44.6653
3.309	44.3194
3.296	43.8577
3.284	43.3171
3.271	42.8572
3.259	42.5363
3.247	42.0404
3.234	41.5611
3.222	41.4081
3.21	41.0045
3.199	40.5817
3.187	40.3479
3.175	40.2616
3.163	39.9414
3.152	39.7615
3.14	39.6365
3.129	39.6533
3.118	39.7206
3.107	39.6883
3.095	39.8057
3.084	39.8539
3.073	40.0292
3.063	40.2854
3.052	40.3592
3.041	40.7269
3.03	40.7121
3.02	41.1377
3.009	41.2119
2.999	41.5998
2.988	41.8235
2.978	42.2407
2.968	42.7067
2.958	42.8994
2.948	43.5708
2.938	44.1056
2.928	44.7015
2.918	45.5625
2.908	46.3245
2.898	46.8319
2.888	48.1928
2.879	48.8507
2.869	50.0242
2.86	51.0123
2.85	51.9949
2.841	52.9814
2.832	53.9512
2.822	54.5817
2.813	55.5471
2.804	56.6738
2.795	57.2779
2.786	58.703
2.777	59.6467
2.768	61.6235
2.759	62.6439
2.751	64.9195
2.742	67.2986
2.733	67.9375
2.725	70.1264
2.716	70.39
2.707	71.4509
2.699	72.477
2.691	73.6996
2.682	74.6648
2.674	75.0644
2.666	76.8151
2.658	75.015
2.649	75.1006
2.641	75.3395
2.633	75.4901
2.625	75.4056
2.617	76.3002
2.609	75.6058
2.602	75.4847
2.594	76.9048
2.586	75.4845
2.578	75.3598
2.571	75.3506
2.563	75.7327
2.555	74.9854
2.548	74.9643
2.54	74.843
2.533	74.8064
2.525	74.592
2.518	74.6004
2.511	74.472
2.504	74.5354
2.496	74.5673
2.489	74.4955
2.482	74.5796
2.475	74.6935
2.468	74.5373
2.461	74.7212
2.454	74.6083
2.447	74.6482
2.44	74.5548
2.433	74.8355
2.426	74.5689
2.419	74.6707
2.413	74.6533
2.406	74.433
2.399	74.4752
2.393	74.393
2.386	74.4315
2.379	74.3788
2.373	74.6663
2.366	74.4185
2.36	74.3033
2.354	74.4055
2.347	74.3817
2.341	74.267
2.334	74.3688
2.328	74.3347
2.322	74.0828
2.316	74.1988
2.309	74.2698
2.303	73.9985
2.297	73.9053
2.291	74.0612
2.285	74.0957
2.279	73.913
2.273	74.0996
2.267	73.8743
2.261	73.9114
2.255	73.8459
2.249	73.985
2.244	73.7926
2.238	73.7246
2.232	73.9729
2.226	73.9264
2.22	73.6484
2.215	73.8201
2.209	73.8859
2.204	73.8671
2.198	73.9114
2.192	73.9422
2.187	73.684
2.181	73.8055
2.176	73.9219
2.17	73.8863
2.165	73.6658
2.159	73.7188
2.154	73.5229
2.149	73.9517
2.143	74.0081
2.138	73.8883
2.133	73.8794
2.128	73.8646
2.122	73.7857
2.117	73.9198
2.112	73.8473
2.107	73.5705
2.102	73.6705
2.097	74.003
2.091	73.6121
2.086	73.7682
2.081	73.9788
2.076	73.6
2.071	73.6754
2.066	73.8602
2.062	73.7606
2.057	73.9394
2.052	74.0509
2.047	73.9549
2.042	73.9435
2.037	73.8711
2.032	73.894
2.028	74.1104
2.023	73.9853
2.018	74.0169
2.014	73.9546
2.009	73.5157
2.004	73.8187
