Name: Tschermigite (NH_4)Al(SO_4)_2.12H_2O
Type: Mineral
Class: Sulfates
Particle Size: 0-45um
Sample No.: SO-6A
Owner: JPL
Origin: USA, Nevada, Esmeralda County, Silver Peak
Measurement: Hemispherical reflectance
X Units: Wavelength (micrometers)
Y Units: Reflectance (percent)
wavelength	value
15.385	0.8536
15.116	1.0188
14.856	1.193
14.605	1.1908
14.362	1.1568
14.128	0.9082
13.9	0.8878
13.68	0.7733
13.467	0.576
13.26	0.8839
13.06	0.7421
12.866	0.8436
12.677	0.9886
12.494	0.9766
12.316	1.2272
12.143	1.2048
11.974	1.26
11.811	1.1406
11.651	1.3115
11.496	1.3857
11.345	1.176
11.198	1.064
11.055	1.1441
10.915	1.0255
10.779	1.1055
10.647	1.0382
10.517	1.0381
10.39	1.1063
10.267	1.4017
10.146	1.3427
10.029	1.6539
9.914	1.8145
9.801	1.9878
9.691	2.0817
9.584	2.0468
9.479	2.2999
9.376	2.328
9.275	2.575
9.177	3.7269
9.08	4.9637
8.986	4.822
8.893	4.208
8.803	2.579
8.714	0.7974
8.627	0.2134
8.542	0.1605
8.458	0.3961
8.376	0.3764
8.296	0.1158
8.217	0.4557
8.139	0.5949
8.063	0.7388
7.989	1.067
7.916	1.2232
7.844	1.4321
7.773	1.5659
7.704	1.6346
7.636	1.63
7.569	1.7602
7.503	1.6769
7.439	1.7364
7.375	1.8426
7.313	1.7587
7.252	1.6367
7.191	1.7209
7.132	1.5777
7.073	1.695
7.016	1.4615
6.96	1.4265
6.904	1.3337
6.849	1.4495
6.795	1.3782
6.742	1.3978
6.69	1.3789
6.639	1.4168
6.588	1.5118
6.538	1.325
6.489	1.2821
6.441	1.2706
6.393	1.0631
6.346	1.1514
6.3	1.0517
6.254	0.885
6.209	0.9012
6.165	0.8367
6.121	0.7386
6.078	0.7952
6.036	0.6477
5.994	0.7389
5.953	0.6402
5.912	0.8034
5.872	0.8978
5.832	0.8521
5.793	0.8358
5.755	1.189
5.716	1.0488
5.679	1.1336
5.642	1.3398
5.605	1.4034
5.569	1.5966
5.533	1.62
5.498	1.7912
5.463	1.9428
5.429	2.0946
5.395	2.259
5.362	2.3695
5.329	2.4092
5.296	2.4994
5.264	2.5884
5.232	2.597
5.2	2.6643
5.169	2.7962
5.139	2.8208
5.108	2.8551
5.078	2.8239
5.049	2.9146
5.019	3.0049
4.99	2.9736
4.962	3.0046
4.933	2.9863
4.905	2.9655
4.878	2.9243
4.85	2.8053
4.823	2.5397
4.796	2.5366
4.77	2.6135
4.744	2.5516
4.718	2.5136
4.692	2.7643
4.667	2.7609
4.642	2.6518
4.617	2.652
4.592	2.7622
4.568	2.6151
4.544	2.7371
4.52	2.7082
4.497	2.6671
4.474	2.5744
4.45	2.533
4.428	2.6335
4.405	2.4879
4.383	2.3367
4.361	2.2061
4.339	2.1056
4.317	2.1246
4.296	1.9755
4.274	1.9202
4.253	1.8232
4.233	1.8365
4.212	1.7592
4.191	1.5669
4.171	1.5608
4.151	1.3025
4.131	1.3304
4.112	1.2786
4.092	1.1759
4.073	1.2232
4.054	1.0685
4.035	1.0139
4.016	1.1112
3.998	1.0336
3.979	0.9333
3.961	1.0751
3.943	1.1113
3.925	1.0773
3.907	1.0229
3.89	1.136
3.872	1.1317
3.855	1.1566
3.838	1.1583
3.821	1.1381
3.804	1.1611
3.787	1.2161
3.771	1.0789
3.754	1.132
3.738	1.1034
3.722	1.0438
3.706	1.1096
3.69	0.9932
3.675	1.0637
3.659	1.0565
3.644	1.122
3.628	1.1179
3.613	1.062
3.598	1.0004
3.583	1.0718
3.568	0.9656
3.554	1.044
3.539	0.9437
3.525	0.9793
3.51	0.9325
3.496	0.8998
3.482	1.092
3.468	0.9894
3.454	0.9869
3.441	0.8375
3.427	0.7903
3.413	0.9126
3.4	0.8497
3.387	0.8511
3.373	0.7554
3.36	0.7167
3.347	0.7914
3.334	0.8311
3.321	0.6557
3.309	0.6946
3.296	0.656
3.284	0.7619
3.271	0.6517
3.259	0.585
3.247	0.5486
3.234	0.6116
3.222	0.5987
3.21	0.5077
3.199	0.4368
3.187	0.6441
3.175	0.6047
3.163	0.503
3.152	0.5701
3.14	0.5426
3.129	0.57
3.118	0.6932
3.107	0.5386
3.095	0.5596
3.084	0.5956
3.073	0.661
3.063	0.5401
3.052	0.736
3.041	0.7773
3.03	0.7839
3.02	0.7154
3.009	0.7577
2.999	0.5894
2.988	0.8064
2.978	0.6762
2.968	0.8692
2.958	0.5448
2.948	0.4774
2.938	0.5023
2.928	0.3437
2.918	0.364
2.908	0.4151
2.898	0.4218
2.888	0.2416
2.879	0.3311
2.869	0.4664
2.86	0.3403
2.85	0.3537
2.841	0.5313
2.832	0.2938
2.822	0.2666
2.813	0.5071
2.804	0.3246
2.795	0.4605
2.786	0.703
2.777	0.9952
2.768	1.567
2.759	2.4093
2.751	3.1968
2.742	4.8187
2.733	5.8584
2.725	7.5891
2.716	8.5076
2.707	9.6852
2.699	10.6653
2.691	11.3407
2.682	12.2319
2.674	13.0441
2.666	14.0473
2.658	14.4812
2.649	14.9593
2.641	15.5272
2.633	16.1902
2.625	16.4186
2.617	17.1768
2.609	17.2259
2.602	17.5141
2.594	17.9698
2.586	17.8283
2.578	18.0103
2.571	18.0416
2.563	18.1799
2.555	17.8382
2.548	17.7865
2.54	17.8131
2.533	17.7035
2.525	17.851
2.518	18.1658
2.511	18.492
2.504	18.8498
2.496	19.3239
2.489	19.7455
2.482	20.1084
2.475	20.6382
2.468	20.951
2.461	21.4943
2.454	21.8872
2.447	22.3365
2.44	22.9359
2.433	23.7632
2.426	24.4982
2.419	25.1094
2.413	25.7768
2.406	26.1742
2.399	26.912
2.393	27.1437
2.386	27.6752
2.379	28.0336
2.373	28.1803
2.366	28.1789
2.36	28.5004
2.354	28.5925
2.347	28.8321
2.341	28.6766
2.334	28.6967
2.328	28.4452
2.322	28.3611
2.316	28.2028
2.309	28.2493
2.303	28.3861
2.297	28.3654
2.291	28.5244
2.285	28.3982
2.279	28.5386
2.273	28.605
2.267	28.5863
2.261	28.6543
2.255	28.69
2.249	28.6535
2.244	28.6509
2.238	28.4893
2.232	28.5827
2.226	28.3303
2.22	28.2286
2.215	28.3418
2.209	28.325
2.204	28.1826
2.198	28.104
2.192	28.0908
2.187	28.0635
2.181	27.9559
2.176	27.9555
2.17	27.8011
2.165	27.7152
2.159	28.0098
2.154	28.0625
2.149	27.5701
2.143	28.1157
2.138	27.9816
2.133	28.26
2.128	28.5897
2.122	28.5589
2.117	28.7721
2.112	28.8751
2.107	28.8325
2.102	29.2513
2.097	29.2212
2.091	29.253
2.086	29.3819
2.081	29.4613
2.076	29.5789
2.071	29.5151
2.066	29.5461
2.062	29.6508
2.057	29.269
2.052	29.4242
2.047	29.27
2.042	28.7651
2.037	28.3577
2.032	28.0291
2.028	27.8573
2.023	26.884
2.018	26.4858
2.014	26.0658
2.009	25.1445
2.004	24.4364
