Name: Tourmaline Na(Mg_3,Fe_3^2+)Al_6(BO_3)_3Si_6O_18(OH)_4
Type: Mineral
Class: Silicates
Subclass: Cyclosilicates
Particle Size: 125-500um
Sample No.: CS-1A
Owner: JPL
Origin: USA, New York, Overlook.
Measurement: Hemispherical reflectance
X Units: Wavelength (micrometers)
Y Units: Reflectance (percent)
wavelength	value
2.5	8.38775
2.494	8.04904
2.488	8.10797
2.482	8.2735
2.476	8.27097
2.47	8.2237
2.464	8.37125
2.458	8.38152
2.452	8.47583
2.446	8.62523
2.44	8.68173
2.434	8.804
2.428	8.79956
2.422	8.87813
2.416	8.86584
2.41	8.78464
2.404	8.64516
2.398	8.57627
2.392	8.28531
2.386	7.89038
2.38	7.44459
2.374	6.92126
2.368	6.61069
2.362	6.47121
2.356	6.5949
2.35	6.81249
2.344	7.12726
2.338	7.3859
2.332	7.60234
2.326	7.697
2.32	7.81019
2.314	7.85831
2.308	7.90794
2.302	7.88176
2.296	7.84205
2.29	7.8766
2.284	8.07675
2.278	8.14248
2.272	8.14782
2.266	8.03614
2.26	7.76269
2.254	7.36248
2.248	6.93046
2.242	6.80212
2.236	6.89169
2.23	7.03987
2.224	6.99061
2.218	6.73643
2.212	6.40828
2.206	6.20487
2.2	6.3335
2.194	6.78764
2.188	6.87536
2.182	6.90122
2.176	6.9559
2.17	6.85775
2.164	6.9095
2.158	6.80467
2.152	6.75672
2.146	6.6934
2.14	6.66271
2.134	6.62085
2.128	6.52782
2.122	6.40579
2.116	6.26719
2.11	6.22197
2.104	6.09772
2.098	5.9932
2.092	5.91751
2.086	5.87492
2.08	5.77571
2.074	5.68315
2.068	5.60967
2.062	5.57018
2.056	5.45007
2.05	5.3763
2.044	5.29377
2.038	5.22145
2.032	5.1261
2.026	5.11447
2.02	5.04901
2.014	4.98198
2.008	4.89905
2.002	4.91446
1.996	4.71669
1.99	4.64706
1.984	4.67635
1.978	4.57712
1.972	4.39097
1.966	4.38136
1.96	4.32851
1.954	4.26114
1.948	4.21301
1.942	4.23602
1.936	4.10799
1.93	4.10981
1.924	4.05089
1.918	3.86734
1.912	3.93321
1.906	3.88549
1.9	3.76648
1.894	3.79434
1.888	3.74054
1.882	3.65628
1.876	3.68968
1.87	3.54338
1.864	3.5889
1.858	3.50301
1.852	3.46473
1.846	3.4513
1.84	3.45669
1.834	3.39263
1.828	3.39735
1.822	3.28794
1.816	3.36209
1.81	3.2989
1.804	3.2618
1.798	3.25779
1.792	3.22001
1.786	3.15537
1.78	3.14809
1.774	3.07757
1.768	3.07811
1.762	3.05829
1.756	3.05042
1.75	3.05595
1.744	2.99742
1.738	2.95239
1.732	2.9511
1.726	2.9742
1.72	2.95372
1.714	2.90714
1.708	2.92524
1.702	2.87725
1.696	2.89508
1.69	2.83175
1.684	2.79277
1.678	2.90935
1.672	2.82704
1.666	2.82981
1.66	2.86548
1.654	2.81161
1.648	2.82963
1.642	2.84479
1.636	2.80975
1.63	2.81601
1.624	2.69804
1.618	2.82155
1.612	2.74546
1.606	2.70013
1.6	2.67609
1.594	2.6944
1.588	2.68602
1.582	2.66032
1.576	2.63646
1.57	2.62218
1.564	2.66378
1.558	2.66916
1.552	2.63867
1.546	2.63851
1.54	2.53147
1.534	2.61404
1.528	2.6038
1.522	2.66009
1.516	2.56468
1.51	2.57874
1.504	2.55033
1.498	2.54691
1.492	2.56994
1.486	2.57972
1.48	2.57984
1.474	2.5636
1.468	2.55026
1.462	2.51554
1.456	2.57221
1.45	2.53682
1.444	2.47551
1.438	2.43863
1.432	2.47277
1.426	2.5181
1.42	2.50289
1.414	2.4601
1.408	2.39863
1.402	2.48714
1.396	2.51637
1.39	2.49957
1.384	2.56767
1.378	2.47838
1.372	2.45812
1.366	2.43903
1.36	2.38564
1.354	2.40781
1.348	2.42235
1.342	2.41558
1.336	2.43771
1.33	2.45549
1.324	2.47584
1.318	2.42469
1.312	2.43092
1.306	2.47656
1.3	2.41966
1.294	2.44437
1.288	2.45681
1.282	2.49977
1.276	2.50203
1.27	2.47692
1.264	2.51872
1.258	2.48877
1.252	2.4627
1.246	2.50571
1.24	2.46391
1.234	2.48425
1.228	2.4919
1.222	2.47969
1.216	2.45504
1.21	2.46126
1.204	2.54235
1.198	2.45423
1.192	2.47455
1.186	2.52981
1.18	2.54552
1.174	2.47598
1.168	2.47031
1.162	2.54324
1.156	2.52583
1.15	2.49813
1.144	2.49419
1.138	2.48533
1.132	2.59457
1.126	2.52133
1.12	2.476
1.114	2.52431
1.108	2.51738
1.102	2.53036
1.096	2.48483
1.09	2.56418
1.084	2.50501
1.078	2.50034
1.072	2.56964
1.066	2.55702
1.06	2.52156
1.054	2.5215
1.048	2.57848
1.042	2.54124
1.036	2.57406
1.03	2.5471
1.024	2.54968
1.018	2.49789
1.012	2.51582
1.006	2.5358
1	2.52931
0.994	2.5207
0.988	2.5383
0.982	2.49767
0.976	2.48215
0.97	2.48554
0.964	2.54431
0.958	2.5037
0.952	2.53566
0.946	2.4908
0.94	2.43831
0.934	2.48611
0.928	2.45834
0.922	2.47574
0.916	2.50158
0.91	2.44358
0.904	2.50969
0.898	2.41237
0.892	2.44186
0.886	2.40426
0.88	2.44661
0.874	2.4329
0.868	2.49044
0.862	2.47422
0.856	2.77004
0.85	2.77351
0.844	2.77718
0.838	2.76321
0.832	2.75993
0.826	2.75523
0.82	2.74856
0.814	2.74388
0.808	2.73368
0.802	2.73457
0.796	2.71768
0.79	2.71442
0.784	2.70427
0.778	2.70378
0.772	2.6957
0.766	2.6895
0.76	2.68537
0.754	2.67907
0.748	2.67586
0.742	2.67489
0.736	2.66782
0.73	2.67056
0.724	2.66466
0.718	2.66297
0.712	2.66151
0.706	2.66141
0.7	2.66182
0.694	2.66102
0.688	2.66161
0.682	2.66238
0.676	2.6662
0.67	2.66918
0.664	2.67488
0.658	2.67807
0.652	2.68368
0.646	2.69327
0.64	2.70076
0.634	2.70921
0.628	2.71816
0.622	2.72765
0.616	2.73731
0.61	2.74838
0.604	2.75726
0.598	2.76793
0.592	2.77969
0.586	2.7888
0.58	2.79879
0.574	2.80743
0.568	2.81792
0.562	2.82537
0.556	2.83569
0.55	2.84384
0.544	2.8544
0.538	2.86638
0.532	2.87717
0.526	2.88982
0.52	2.90154
0.514	2.91275
0.508	2.92748
0.502	2.94304
0.496	2.95684
0.49	2.97195
0.484	2.9895
0.478	3.01106
0.472	3.02886
0.466	3.04698
0.46	3.07518
0.454	3.09699
0.448	3.11911
0.442	3.14801
0.436	3.17733
0.43	3.2069
0.424	3.24092
0.418	3.2799
0.412	3.32064
0.406	3.36907
0.4	3.42194
