Name: Sulphur S
Type: Mineral
Class: Elements
Particle Size: 125-500um
Sample No.: E-2A
Owner: JPL
Origin: None.
Measurement: Hemispherical reflectance
X Units: Wavelength (micrometers)
Y Units: Reflectance (percent)
wavelength	value
2.5	85.7503
2.494	85.5147
2.488	85.5923
2.482	85.6145
2.476	85.5599
2.47	85.8053
2.464	85.6203
2.458	85.7712
2.452	85.9018
2.446	85.9107
2.44	85.9943
2.434	86.0928
2.428	86.3276
2.422	86.1861
2.416	86.1282
2.41	86.2419
2.404	86.3405
2.398	86.4008
2.392	86.4796
2.386	86.6453
2.38	86.8215
2.374	86.7461
2.368	86.9378
2.362	86.9118
2.356	87.0074
2.35	87.0208
2.344	87.0757
2.338	87.1153
2.332	87.088
2.326	87.0118
2.32	86.9503
2.314	86.9009
2.308	86.973
2.302	86.8379
2.296	86.9128
2.29	86.8162
2.284	86.7329
2.278	86.7327
2.272	86.6286
2.266	86.7349
2.26	86.7484
2.254	86.6955
2.248	86.6635
2.242	86.6094
2.236	86.6608
2.23	86.6356
2.224	86.7093
2.218	86.7437
2.212	86.9806
2.206	86.9654
2.2	87.1825
2.194	87.1673
2.188	87.1553
2.182	87.3372
2.176	87.4927
2.17	87.5896
2.164	87.7686
2.158	87.9117
2.152	88.0241
2.146	88.024
2.14	87.9058
2.134	87.84
2.128	87.7415
2.122	87.4641
2.116	87.1115
2.11	86.8489
2.104	86.5915
2.098	86.4513
2.092	86.5865
2.086	86.5634
2.08	86.5757
2.074	86.7112
2.068	86.6906
2.062	86.8009
2.056	86.8796
2.05	86.9429
2.044	86.903
2.038	87.0259
2.032	87.0258
2.026	87.094
2.02	87.1086
2.014	87.1402
2.008	87.0819
2.002	87.0466
1.996	87.1118
1.99	86.9574
1.984	86.9413
1.978	86.769
1.972	86.7647
1.966	86.7605
1.96	86.9254
1.954	86.8135
1.948	86.9109
1.942	86.8793
1.936	87.0118
1.93	86.8721
1.924	87.1193
1.918	87.1359
1.912	87.1419
1.906	87.2079
1.9	87.2625
1.894	87.3395
1.888	87.2746
1.882	87.2875
1.876	87.3597
1.87	87.4818
1.864	87.332
1.858	87.3064
1.852	87.445
1.846	87.4192
1.84	87.3825
1.834	87.46
1.828	87.4113
1.822	87.463
1.816	87.4232
1.81	87.4331
1.804	87.4372
1.798	87.5111
1.792	87.3402
1.786	87.3872
1.78	87.3839
1.774	87.3976
1.768	87.3697
1.762	87.3422
1.756	87.3128
1.75	87.3982
1.744	87.4539
1.738	87.3687
1.732	87.5041
1.726	87.3981
1.72	87.4707
1.714	87.4878
1.708	87.4038
1.702	87.3483
1.696	87.3761
1.69	87.4032
1.684	87.3666
1.678	87.4405
1.672	87.2959
1.666	87.3666
1.66	87.3633
1.654	87.2929
1.648	87.2593
1.642	87.3544
1.636	87.3614
1.63	87.2365
1.624	87.3269
1.618	87.3465
1.612	87.3711
1.606	87.3599
1.6	87.3309
1.594	87.1757
1.588	87.2942
1.582	87.2814
1.576	87.2603
1.57	87.2951
1.564	87.2367
1.558	87.2717
1.552	87.3332
1.546	87.2729
1.54	87.2431
1.534	87.1936
1.528	87.2429
1.522	87.1814
1.516	87.1987
1.51	87.132
1.504	87.1486
1.498	87.1282
1.492	87.1531
1.486	87.1716
1.48	87.0706
1.474	87.0505
1.468	87.0723
1.462	87.0923
1.456	87.0982
1.45	87.1509
1.444	87.1068
1.438	87.0781
1.432	87.0768
1.426	87.0428
1.42	87.0815
1.414	87.0909
1.408	87.1022
1.402	86.9706
1.396	87.148
1.39	87.1207
1.384	87.0367
1.378	87.075
1.372	87.2146
1.366	87.1973
1.36	87.2094
1.354	87.1628
1.348	87.1296
1.342	87.0729
1.336	87.0185
1.33	86.9372
1.324	87.0415
1.318	87.0194
1.312	86.9751
1.306	87.0675
1.3	86.9984
1.294	86.9976
1.288	86.9895
1.282	86.948
1.276	86.863
1.27	87.0456
1.264	86.9695
1.258	87.013
1.252	86.9129
1.246	86.9591
1.24	86.869
1.234	86.885
1.228	86.8692
1.222	86.8752
1.216	86.8863
1.21	86.8503
1.204	86.8638
1.198	86.9284
1.192	86.9461
1.186	86.8783
1.18	86.8825
1.174	86.8692
1.168	86.8746
1.162	86.8732
1.156	86.8878
1.15	86.8831
1.144	86.9362
1.138	86.8804
1.132	86.8714
1.126	86.9056
1.12	86.8479
1.114	86.9316
1.108	86.8919
1.102	86.8724
1.096	86.8717
1.09	86.8432
1.084	86.9757
1.078	86.7936
1.072	86.9167
1.066	86.9145
1.06	86.9041
1.054	86.9541
1.048	86.9202
1.042	86.9753
1.036	86.9592
1.03	86.9484
1.024	86.9293
1.018	86.829
1.012	86.9712
1.006	86.845
1	86.9671
0.994	86.9137
0.988	86.95
0.982	86.9226
0.976	86.9433
0.97	86.9644
0.964	86.9147
0.958	86.983
0.952	86.9403
0.946	86.956
0.94	86.9763
0.934	86.9608
0.928	86.9916
0.922	86.9462
0.916	87.027
0.91	86.999
0.904	87.0811
0.898	87.0793
0.892	87.0523
0.886	87.1556
0.88	87.1527
0.874	87.1946
0.868	87.3528
0.862	87.215
0.856	87.8604
0.85	87.7851
0.844	87.7986
0.838	87.8034
0.832	87.8056
0.826	87.7507
0.82	87.7985
0.814	87.8091
0.808	87.8086
0.802	87.8117
0.796	87.7467
0.79	87.731
0.784	87.6964
0.778	87.6941
0.772	87.6972
0.766	87.7589
0.76	87.6933
0.754	87.7271
0.748	87.7261
0.742	87.7083
0.736	87.6979
0.73	87.6725
0.724	87.6825
0.718	87.6814
0.712	87.6775
0.706	87.6887
0.7	87.6899
0.694	87.692
0.688	87.6697
0.682	87.679
0.676	87.6532
0.67	87.6594
0.664	87.6809
0.658	87.6463
0.652	87.6551
0.646	87.6666
0.64	87.6443
0.634	87.6652
0.628	87.6367
0.622	87.6285
0.616	87.6037
0.61	87.6295
0.604	87.6035
0.598	87.6268
0.592	87.6833
0.586	87.6461
0.58	87.6519
0.574	87.6162
0.568	87.5919
0.562	87.5437
0.556	87.4906
0.55	87.4357
0.544	87.3241
0.538	87.1739
0.532	86.9225
0.526	86.5777
0.52	86.0321
0.514	85.2096
0.508	83.9269
0.502	81.9644
0.496	79.1048
0.49	75.0059
0.484	69.5375
0.478	63.0788
0.472	55.3368
0.466	46.6911
0.46	37.64
0.454	28.9551
0.448	21.3665
0.442	15.433
0.436	11.3621
0.43	8.85291
0.424	7.51845
0.418	6.92394
0.412	6.72847
0.406	6.71568
0.4	6.78571
