Name: Andesine (Feldspar) (NaSi,CaAl)AlSi_2O_8
Type: Mineral
Class: Silicates
Subclass: Tectosilicates
Particle Size: 125-500um
Sample No.: TS-4A
Owner: JPL
Wavelength Range: VNIR-SWIR
Measurement: Hemispherical reflectance
X Units: Wavelength (micrometers)
Y Units: Reflectance (percent)
wavelength	value
0.4	57.58
0.403	58.32
0.406	58.63
0.409	59.15
0.412	59.55
0.415	59.85
0.418	60.11
0.421	60.8
0.424	61.14
0.427	61.66
0.43	62.19
0.433	62.85
0.436	63.16
0.439	63.68
0.442	64.22
0.445	64.75
0.448	64.99
0.451	65.33
0.454	65.59
0.457	65.87
0.46	66.22
0.463	66.42
0.466	66.77
0.469	66.98
0.472	67.09
0.475	67.5
0.478	67.9
0.481	67.95
0.484	68.19
0.487	68.53
0.49	68.63
0.493	68.92
0.496	69.26
0.499	69.65
0.502	69.88
0.505	70.14
0.508	70.52
0.511	70.78
0.514	70.95
0.517	71.26
0.52	71.54
0.523	71.7
0.526	71.79
0.529	72.02
0.532	72.16
0.535	72.23
0.538	72.49
0.541	72.61
0.544	72.58
0.547	72.89
0.55	73.08
0.553	73.02
0.556	73.25
0.559	73.42
0.562	73.76
0.565	73.72
0.568	73.84
0.571	73.73
0.574	73.54
0.577	73.58
0.58	73.68
0.583	73.55
0.586	73.78
0.589	73.81
0.592	73.84
0.595	73.75
0.598	73.97
0.601	73.95
0.604	73.94
0.607	74.1
0.61	74.19
0.613	74.12
0.616	74.02
0.619	74.05
0.622	74.24
0.625	74.06
0.628	74.13
0.631	74.17
0.634	74.14
0.637	74.14
0.64	74.31
0.643	74.22
0.646	74.02
0.649	74.37
0.652	74.19
0.655	74.23
0.658	74.24
0.661	74.29
0.664	74.23
0.667	74.28
0.67	74.43
0.673	74.36
0.676	74.25
0.679	74.34
0.682	74.49
0.685	74.43
0.688	74.35
0.691	74.43
0.694	74.55
0.697	74.45
0.7	74.38
0.703	74.46
0.706	74.6
0.709	74.31
0.712	74.45
0.715	74.61
0.718	74.53
0.721	74.6
0.724	74.61
0.727	74.72
0.73	74.69
0.733	74.71
0.736	74.79
0.739	74.9
0.742	74.84
0.745	74.79
0.748	74.92
0.751	75
0.754	74.86
0.757	74.86
0.76	74.9
0.763	74.83
0.766	74.85
0.769	75.02
0.772	75.11
0.775	75.08
0.778	75.07
0.781	75.15
0.784	75.01
0.787	75.19
0.79	75.26
0.793	75.09
0.796	75.27
0.799	75.19
0.808	75.22
0.82	75.26
0.832	75.17
0.844	75.13
0.856	75.06
0.868	75.08
0.88	74.84
0.892	74.83
0.904	74.87
0.916	74.64
0.928	74.57
0.94	74.42
0.952	74.06
0.964	73.92
0.976	73.7
0.988	73.21
1	72.71
1.012	72.19
1.024	71.63
1.036	71.14
1.048	70.47
1.06	69.84
1.072	69.19
1.084	68.6
1.096	67.96
1.108	67.41
1.12	66.8
1.132	66.14
1.144	65.49
1.156	64.93
1.168	64.48
1.18	64.05
1.192	63.74
1.204	63.48
1.216	63.16
1.228	62.87
1.24	62.63
1.252	62.55
1.264	62.55
1.276	62.56
1.288	62.48
1.3	62.39
1.312	62.51
1.324	62.64
1.336	62.9
1.348	63.03
1.36	63.35
1.372	63.35
1.384	63.07
1.396	62.06
1.408	61.94
1.42	63.73
1.432	64.7
1.444	65.38
1.456	65.82
1.468	66.44
1.48	67.06
1.492	67.62
1.504	68.13
1.516	68.77
1.528	69.24
1.54	69.65
1.552	70.06
1.564	70.55
1.576	70.8
1.588	71.07
1.6	71.48
1.612	71.75
1.624	72.07
1.636	72.35
1.648	72.48
1.66	72.59
1.672	72.82
1.684	73.02
1.696	73.08
1.708	73.17
1.72	73.27
1.732	73.46
1.744	73.43
1.756	73.39
1.768	73.49
1.78	73.69
1.792	73.77
1.804	73.85
1.816	73.9
1.828	73.93
1.84	73.96
1.852	74.07
1.864	73.86
1.876	73.05
1.888	71.38
1.9	69.4
1.912	68.89
1.924	69.52
1.936	70.34
1.948	70.88
1.96	71.44
1.972	71.97
1.984	72.46
1.996	73.12
2.008	73.62
2.02	74.17
2.032	74.66
2.044	74.82
2.056	75.04
2.068	75.18
2.08	75.39
2.092	75.4
2.104	75.49
2.116	75.68
2.128	75.66
2.14	75.4
2.152	74.76
2.164	73.44
2.176	71.75
2.188	70.32
2.2	70.36
2.212	71.55
2.224	72.76
2.236	73.43
2.248	73.74
2.26	74
2.272	74.07
2.284	73.77
2.296	73.34
2.308	72.41
2.32	71.64
2.332	71.05
2.344	70.65
2.356	70.51
2.368	70.59
2.38	70.37
2.392	70.01
2.404	69.58
2.416	68.81
2.428	68.07
2.44	67.65
2.452	67.39
2.464	67.31
2.476	67.24
2.488	67.37
2.5	67.57
