Name: Fluorite CaF_2
Type: Mineral
Class: Halides
Particle Size: 125-500um
Sample No.: H-2B
Owner: JPL
Origin: United Kingdom, England, Durham County, Weardal.
Measurement: Hemispherical reflectance
X Units: Wavelength (micrometers)
Y Units: Reflectance (percent)
wavelength	value
2.5	62.6145
2.494	62.788
2.488	63.1462
2.482	63.2651
2.476	63.3963
2.47	63.7278
2.464	63.9021
2.458	64.3345
2.452	64.4887
2.446	64.7329
2.44	65.0577
2.434	65.2434
2.428	65.378
2.422	65.5204
2.416	65.7054
2.41	65.9091
2.404	66.0945
2.398	66.2518
2.392	66.4168
2.386	66.5539
2.38	66.7896
2.374	66.9429
2.368	67.1368
2.362	67.2017
2.356	67.4345
2.35	67.5366
2.344	67.6546
2.338	67.7445
2.332	67.7508
2.326	67.8161
2.32	67.8414
2.314	67.8773
2.308	67.8961
2.302	67.9636
2.296	67.9889
2.29	67.966
2.284	68.0407
2.278	67.9975
2.272	67.9865
2.266	67.9355
2.26	67.9634
2.254	68.0233
2.248	67.9792
2.242	67.9723
2.236	67.966
2.23	67.9819
2.224	67.9252
2.218	68.0315
2.212	68.1323
2.206	68.135
2.2	68.2089
2.194	68.2459
2.188	68.241
2.182	68.3415
2.176	68.4072
2.17	68.4249
2.164	68.528
2.158	68.6709
2.152	68.718
2.146	68.641
2.14	68.6011
2.134	68.4557
2.128	68.2903
2.122	68.0348
2.116	67.6698
2.11	67.4244
2.104	67.0994
2.098	66.8418
2.092	66.8132
2.086	66.7649
2.08	66.6553
2.074	66.6733
2.068	66.4942
2.062	66.4297
2.056	66.3426
2.05	66.1811
2.044	66.1007
2.038	65.9233
2.032	65.7145
2.026	65.4531
2.02	65.1538
2.014	64.8254
2.008	64.4695
2.002	64.0667
1.996	63.604
1.99	63.1024
1.984	62.6594
1.978	62.1712
1.972	61.7408
1.966	61.3061
1.96	60.957
1.954	60.5926
1.948	60.4123
1.942	60.3215
1.936	60.1497
1.93	60.2573
1.924	60.4664
1.918	60.9042
1.912	61.6369
1.906	62.5075
1.9	63.7663
1.894	64.8687
1.888	65.8849
1.882	66.6974
1.876	67.1679
1.87	67.5656
1.864	67.7564
1.858	67.9173
1.852	67.9167
1.846	67.917
1.84	67.945
1.834	67.9191
1.828	67.8856
1.822	67.8684
1.816	67.8146
1.81	67.8131
1.804	67.7805
1.798	67.8437
1.792	67.7828
1.786	67.7472
1.78	67.768
1.774	67.7306
1.768	67.746
1.762	67.7828
1.756	67.7147
1.75	67.7276
1.744	67.7855
1.738	67.8067
1.732	67.8935
1.726	67.8308
1.72	67.8591
1.714	67.7603
1.708	67.7793
1.702	67.743
1.696	67.6723
1.69	67.6642
1.684	67.658
1.678	67.5989
1.672	67.5731
1.666	67.5355
1.66	67.479
1.654	67.4366
1.648	67.4101
1.642	67.3127
1.636	67.3532
1.63	67.2176
1.624	67.316
1.618	67.133
1.612	67.0985
1.606	67.1342
1.6	67.121
1.594	67.0504
1.588	67.0063
1.582	66.9393
1.576	66.8612
1.57	66.8204
1.564	66.6904
1.558	66.6474
1.552	66.5519
1.546	66.5055
1.54	66.4471
1.534	66.3523
1.528	66.2793
1.522	66.1566
1.516	66.0588
1.51	65.8932
1.504	65.7323
1.498	65.6506
1.492	65.4746
1.486	65.3383
1.48	65.1859
1.474	64.991
1.468	64.8746
1.462	64.7628
1.456	64.693
1.45	64.6457
1.444	64.623
1.438	64.5925
1.432	64.6156
1.426	64.7235
1.42	64.7676
1.414	64.8505
1.408	65.166
1.402	65.3676
1.396	65.6635
1.39	65.8763
1.384	65.9319
1.378	65.929
1.372	65.9283
1.366	65.8607
1.36	65.8509
1.354	65.7969
1.348	65.8358
1.342	65.7465
1.336	65.734
1.33	65.8111
1.324	65.695
1.318	65.7072
1.312	65.6593
1.306	65.6827
1.3	65.7064
1.294	65.5932
1.288	65.5658
1.282	65.4465
1.276	65.4064
1.27	65.3959
1.264	65.4186
1.258	65.4114
1.252	65.3482
1.246	65.2669
1.24	65.2791
1.234	65.1845
1.228	65.119
1.222	65.1141
1.216	65.0319
1.21	64.9675
1.204	64.9991
1.198	64.9361
1.192	64.8524
1.186	64.8187
1.18	64.8408
1.174	64.8309
1.168	64.755
1.162	64.7525
1.156	64.6821
1.15	64.6554
1.144	64.5861
1.138	64.6202
1.132	64.5891
1.126	64.5436
1.12	64.5088
1.114	64.4677
1.108	64.4513
1.102	64.3933
1.096	64.352
1.09	64.26
1.084	64.2434
1.078	64.1041
1.072	64.1891
1.066	64.0522
1.06	63.985
1.054	63.924
1.048	63.9198
1.042	63.7892
1.036	63.7932
1.03	63.7039
1.024	63.7196
1.018	63.5907
1.012	63.5037
1.006	63.4632
1	63.3454
0.994	63.3006
0.988	63.2759
0.982	63.1988
0.976	63.075
0.97	63.0283
0.964	62.9604
0.958	62.8748
0.952	62.7717
0.946	62.6732
0.94	62.6573
0.934	62.6014
0.928	62.4781
0.922	62.3813
0.916	62.2758
0.91	62.244
0.904	62.1823
0.898	62.0388
0.892	61.9982
0.886	61.9495
0.88	61.8796
0.874	61.8715
0.868	61.7617
0.862	61.777
0.856	62.1323
0.85	62.0866
0.844	62.0395
0.838	61.9588
0.832	61.9245
0.826	61.856
0.82	61.8605
0.814	61.8167
0.808	61.8549
0.802	61.8613
0.796	61.8117
0.79	61.8428
0.784	61.8547
0.778	61.8411
0.772	61.7993
0.766	61.7978
0.76	61.7946
0.754	61.8032
0.748	61.7541
0.742	61.7155
0.736	61.6954
0.73	61.669
0.724	61.6244
0.718	61.5834
0.712	61.5145
0.706	61.4888
0.7	61.413
0.694	61.3488
0.688	61.298
0.682	61.238
0.676	61.1898
0.67	61.0922
0.664	61.017
0.658	60.9148
0.652	60.7721
0.646	60.6628
0.64	60.5087
0.634	60.3574
0.628	60.2258
0.622	60.1116
0.616	60.0055
0.61	59.9148
0.604	59.8624
0.598	59.8298
0.592	59.8041
0.586	59.7303
0.58	59.6448
0.574	59.5937
0.568	59.5147
0.562	59.4087
0.556	59.3842
0.55	59.2807
0.544	59.1808
0.538	59.0652
0.532	58.9464
0.526	58.819
0.52	58.7108
0.514	58.6161
0.508	58.5016
0.502	58.4166
0.496	58.3363
0.49	58.3016
0.484	58.289
0.478	58.1001
0.472	57.9648
0.466	57.8337
0.46	57.6939
0.454	57.5586
0.448	57.3782
0.442	57.2216
0.436	57.0091
0.43	56.7464
0.424	56.4353
0.418	56.3171
0.412	56.2112
0.406	56.0158
0.4	55.7795
