Name: Cordierite Mg_2Al_3(Si_5Al)O_18
Type: Mineral
Class: Silicates
Subclass: Cyclosilicates
Particle Size: 125-500um
Sample No.: CS-3A
Owner: JPL
Wavelength Range: VNIR-SWIR
Origin: Canada, Northwest Territories, Mackenzie District, Great Bear Lake
Measurement: Hemispherical reflectance
X Units: Wavelength (micrometers)
Y Units: Reflectance (percent)
wavelength	value
0.4	31.43
0.403	31.73
0.406	31.87
0.409	31.69
0.412	31.49
0.415	31.41
0.418	31.33
0.421	31.33
0.424	31.79
0.427	31.87
0.43	31.85
0.433	32
0.436	31.83
0.439	31.85
0.442	32.14
0.445	32.1
0.448	32.18
0.451	32.16
0.454	31.87
0.457	31.81
0.46	31.79
0.463	31.56
0.466	31.42
0.469	31.24
0.472	30.96
0.475	30.71
0.478	30.65
0.481	30.49
0.484	30.27
0.487	30.09
0.49	29.65
0.493	29.71
0.496	29.89
0.499	29.8
0.502	29.74
0.505	29.67
0.508	29.49
0.511	29.35
0.514	29.29
0.517	29.02
0.52	28.98
0.523	29.08
0.526	28.97
0.529	28.9
0.532	28.87
0.535	28.65
0.538	28.67
0.541	28.65
0.544	28.46
0.547	28.37
0.55	28.51
0.553	28.45
0.556	28.31
0.559	28.49
0.562	28.58
0.565	28.41
0.568	28.49
0.571	28.41
0.574	28.26
0.577	28.19
0.58	28.37
0.583	28.34
0.586	28.31
0.589	28.45
0.592	28.48
0.595	28.5
0.598	28.71
0.601	28.84
0.604	28.96
0.607	29.14
0.61	29.09
0.613	29.26
0.616	29.39
0.619	29.46
0.622	29.56
0.625	29.71
0.628	29.73
0.631	29.79
0.634	29.96
0.637	30.05
0.64	30.17
0.643	30.42
0.646	30.48
0.649	30.6
0.652	30.91
0.655	30.99
0.658	31.13
0.661	31.44
0.664	31.69
0.667	31.94
0.67	32.32
0.673	32.43
0.676	32.77
0.679	32.95
0.682	33.1
0.685	33.49
0.688	33.88
0.691	34
0.694	34.34
0.697	34.63
0.7	34.67
0.703	35.03
0.706	35.28
0.709	35.52
0.712	35.67
0.715	35.89
0.718	36.22
0.721	36.27
0.724	36.5
0.727	36.76
0.73	36.84
0.733	37.05
0.736	37.04
0.739	37.12
0.742	37.27
0.745	37.28
0.748	37.3
0.751	37.26
0.754	37.13
0.757	37.19
0.76	36.96
0.763	36.82
0.766	36.67
0.769	36.46
0.772	36.14
0.775	35.92
0.778	35.36
0.781	35.05
0.784	34.78
0.787	34.33
0.79	33.97
0.793	33.46
0.796	33.19
0.799	32.92
0.808	31.44
0.82	29.2
0.832	26.8
0.844	24.57
0.856	22.39
0.868	20.51
0.88	18.84
0.892	17.3
0.904	16
0.916	14.88
0.928	14.09
0.94	13.44
0.952	12.89
0.964	12.58
0.976	12.44
0.988	12.46
1	12.64
1.012	12.97
1.024	13.41
1.036	13.94
1.048	14.45
1.06	15.15
1.072	15.68
1.084	16.26
1.096	16.58
1.108	16.91
1.12	17.1
1.132	17.3
1.144	17.4
1.156	17.55
1.168	17.78
1.18	18.06
1.192	18.26
1.204	18.66
1.216	19.08
1.228	19.75
1.24	20.46
1.252	21.39
1.264	22.38
1.276	23.54
1.288	24.81
1.3	26.21
1.312	27.8
1.324	29.44
1.336	31.22
1.348	32.91
1.36	34.28
1.372	36.09
1.384	37.87
1.396	33.89
1.408	37.59
1.42	42.42
1.432	45.98
1.444	48.38
1.456	49.96
1.468	50.96
1.48	54.58
1.492	56.18
1.504	57.74
1.516	59
1.528	60.18
1.54	61.19
1.552	62.02
1.564	62.83
1.576	63.43
1.588	63.92
1.6	64.37
1.612	64.76
1.624	65.12
1.636	65.53
1.648	65.75
1.66	65.94
1.672	66.09
1.684	66.27
1.696	66.36
1.708	66.46
1.72	66.51
1.732	66.41
1.744	66.21
1.756	65.78
1.768	64.95
1.78	63.81
1.792	62.34
1.804	59.6
1.816	56.2
1.828	54.44
1.84	53.96
1.852	54.46
1.864	54.95
1.876	51.59
1.888	38.87
1.9	33.89
1.912	44.48
1.924	51.97
1.936	53.92
1.948	54.53
1.96	54.87
1.972	56.18
1.984	58
1.996	59.08
2.008	59.64
2.02	60.61
2.032	61.41
2.044	61.48
2.056	61.21
2.068	60.63
2.08	60.14
2.092	59.89
2.104	60.03
2.116	60.21
2.128	60.14
2.14	59.67
2.152	58.81
2.164	57.94
2.176	57.37
2.188	56.92
2.2	56.5
2.212	56.36
2.224	56.53
2.236	56.37
2.248	56.13
2.26	56.04
2.272	56.05
2.284	56.13
2.296	56.23
2.308	56.39
2.32	56.45
2.332	56.29
2.344	56.08
2.356	55.88
2.368	55.74
2.38	55.27
2.392	54.78
2.404	54.08
2.416	53.06
2.428	51.8
2.44	50.17
2.452	48.33
2.464	46.08
2.476	43.55
2.488	40.96
2.5	37.96
