Name: Rhodochrosite MnCO_3
Type: Mineral
Class: Carbonates
Particle Size: 125-500um
Sample No.: C-8A
Owner: JPL
Wavelength Range: VNIR-SWIR
Origin: USA, Montana, Silver Bow County, Butte
Measurement: Hemispherical reflectance
X Units: Wavelength (micrometers)
Y Units: Reflectance (percent)
wavelength	value
0.4	38.55
0.403	25.72
0.406	14.52
0.409	27.17
0.412	38.9
0.415	44.95
0.418	46.3
0.421	46.33
0.424	45.68
0.427	44.75
0.43	43.8
0.433	42.99
0.436	42.3
0.439	42.02
0.442	41.82
0.445	42.1
0.448	42.61
0.451	43.34
0.454	44.2
0.457	45.42
0.46	46.26
0.463	47.93
0.466	49.5
0.469	51.11
0.472	52.54
0.475	53.98
0.478	55.07
0.481	55.93
0.484	56.63
0.487	57.08
0.49	57.16
0.493	57.35
0.496	57.24
0.499	57.17
0.502	56.98
0.505	56.66
0.508	56.15
0.511	55.38
0.514	54.71
0.517	53.85
0.52	52.99
0.523	52.07
0.526	51.06
0.529	50.16
0.532	49.32
0.535	48.54
0.538	47.86
0.541	47.51
0.544	47.19
0.547	46.98
0.55	47.19
0.553	47.47
0.556	47.94
0.559	48.34
0.562	49.65
0.565	50.62
0.568	51.66
0.571	52.81
0.574	54
0.577	55.41
0.58	56.72
0.583	58.09
0.586	59.45
0.589	60.65
0.592	61.89
0.595	63.08
0.598	64.04
0.601	64.88
0.604	65.69
0.607	66.41
0.61	66.9
0.613	67.36
0.616	67.72
0.619	67.94
0.622	68.28
0.625	68.52
0.628	68.73
0.631	68.83
0.634	69.05
0.637	69.27
0.64	69.27
0.643	69.46
0.646	69.53
0.649	69.65
0.652	69.79
0.655	69.85
0.658	69.89
0.661	70.03
0.664	70.05
0.667	70.17
0.67	70.29
0.673	70.32
0.676	70.34
0.679	70.37
0.682	70.47
0.685	70.55
0.688	70.54
0.691	70.57
0.694	70.73
0.697	70.67
0.7	70.58
0.703	70.78
0.706	70.9
0.709	70.9
0.712	70.91
0.715	70.87
0.718	71.03
0.721	71.06
0.724	71.06
0.727	71.07
0.73	71.06
0.733	71.12
0.736	71.16
0.739	71.17
0.742	71.25
0.745	71.2
0.748	71.12
0.751	71.26
0.754	71.26
0.757	71.27
0.76	71.26
0.763	71.33
0.766	71.37
0.769	71.35
0.772	71.35
0.775	71.36
0.778	71.38
0.781	71.3
0.784	71.43
0.787	71.4
0.79	71.37
0.793	71.43
0.796	71.52
0.799	71.49
0.808	71.62
0.82	71.61
0.832	71.61
0.844	71.61
0.856	71.63
0.868	71.56
0.88	71.41
0.892	71.27
0.904	71.21
0.916	71.03
0.928	70.88
0.94	70.66
0.952	70.42
0.964	70.21
0.976	70.07
0.988	69.89
1	69.63
1.012	69.43
1.024	69.4
1.036	69.4
1.048	69.35
1.06	69.25
1.072	69.24
1.084	69.23
1.096	69.37
1.108	69.39
1.12	69.52
1.132	69.57
1.144	69.53
1.156	69.58
1.168	69.66
1.18	69.64
1.192	69.68
1.204	69.69
1.216	69.62
1.228	69.64
1.24	69.67
1.252	69.78
1.264	69.73
1.276	69.78
1.288	69.78
1.3	69.74
1.312	69.75
1.324	69.8
1.336	69.88
1.348	69.83
1.36	69.97
1.372	69.95
1.384	69.72
1.396	69.3
1.408	68.8
1.42	68.56
1.432	68.6
1.444	68.71
1.456	68.79
1.468	69.1
1.48	69.42
1.492	69.84
1.504	70.21
1.516	70.65
1.528	70.85
1.54	71.04
1.552	71.26
1.564	71.39
1.576	71.42
1.588	71.66
1.6	71.83
1.612	71.84
1.624	71.94
1.636	72.03
1.648	71.96
1.66	71.99
1.672	71.97
1.684	71.94
1.696	72
1.708	71.92
1.72	71.7
1.732	71.51
1.744	71.32
1.756	71.22
1.768	71.12
1.78	71.35
1.792	71.49
1.804	71.37
1.816	71.05
1.828	70.72
1.84	70.16
1.852	69.35
1.864	68.37
1.876	66.3
1.888	63.98
1.9	63.12
1.912	62.61
1.924	62.14
1.936	62.19
1.948	62.34
1.96	62.79
1.972	63.06
1.984	63.37
1.996	63.37
2.008	63.8
2.02	65.57
2.032	66.97
2.044	67.83
2.056	68.27
2.068	68.62
2.08	68.85
2.092	68.88
2.104	68.86
2.116	68.75
2.128	68.38
2.14	67.59
2.152	66.46
2.164	65.86
2.176	66.08
2.188	66.27
2.2	65.99
2.212	65.32
2.224	64.35
2.236	62.93
2.248	61.17
2.26	59.09
2.272	56.7
2.284	53.67
2.296	50.22
2.308	47.2
2.32	45.24
2.332	43.75
2.344	42.05
2.356	41.19
2.368	44.38
2.38	51.94
2.392	57.9
2.404	59.42
2.416	58.24
2.428	56.27
2.44	53.86
2.452	50.66
2.464	46.73
2.476	42.58
2.488	39.01
2.5	36.43
