Name: Limestone Breccia
Type: Rock
Class: Sedimentary
Subclass: Breccia
Particle Size: Solid surface
Sample No.: Ward47.txt
Owner: JPL
Origin: Ward's Collection of American Rocks.  Sample locality - Two-Mile Canyon, near Boulder, Boulder County, Colorado.
Description: A pale reddish-brown rock composed of angular fragments of
Measurement: Hemispherical reflectance
X Units: Wavelength (micrometers)
Y Units: Reflectance (percent)
wavelength	value
15.3871	3.81736
15.118	3.57077
14.8581	4.11827
14.6069	3.96761
14.3642	3.6547
14.1293	3.79983
13.9021	2.66368
13.682	3.41458
13.4687	4.30053
13.2621	4.84555
13.0616	3.9531
12.8672	5.10106
12.6784	4.45509
12.4951	5.17668
12.317	4.89244
12.1439	5.09741
11.9757	4.82184
11.812	5.41626
11.6527	6.17148
11.4977	8.45131
11.3468	19.7733
11.1997	8.66648
11.0564	7.02069
10.9168	6.37422
10.7806	5.4332
10.6478	5.32695
10.5182	5.44379
10.3917	5.629
10.2683	5.66902
10.1477	5.81383
10.0299	6.06956
9.9148	6.28849
9.8024	6.11955
9.6925	7.0043
9.585	6.81269
9.4798	7.61273
9.377	8.23062
9.2763	9.11449
9.1778	9.24644
9.0814	9.0155
8.987	8.46775
8.8945	9.29253
8.8039	8.72985
8.7151	8.22367
8.6281	7.68944
8.5428	7.74788
8.4592	8.1104
8.3772	8.30201
8.2967	9.04319
8.2179	9.01281
8.1404	8.64446
8.0645	7.7806
7.9899	7.66405
7.9167	7.44443
7.8449	7.32478
7.7743	7.69254
7.705	7.5275
7.6369	7.58804
7.57	7.42785
7.5043	7.77029
7.4397	8.25361
7.3762	9.23338
7.3138	9.91945
7.2524	11.4757
7.1921	14.0169
7.1327	17.6126
7.0743	22.9697
7.0169	23.8998
6.9604	24.6325
6.9047	25.276
6.85	26.1525
6.7962	27.4243
6.7431	28.8769
6.6909	31.4498
6.6395	33.9409
6.5889	35.5219
6.539	36.4864
6.49	36.7466
6.4416	27.7877
6.3939	15.1741
6.347	8.19195
6.3007	4.04255
6.2551	2.52715
6.2101	1.97561
6.1658	1.39486
6.1222	1.3619
6.0791	1.51109
6.0366	1.27629
5.9948	1.43567
5.9535	1.30017
5.9127	1.56647
5.8726	1.61344
5.8329	1.68822
5.7938	1.44429
5.7552	1.67443
5.7172	2.03982
5.6796	1.92432
5.6425	2.17924
5.6059	2.40891
5.5698	1.73811
5.5341	2.1502
5.4989	2.41567
5.4641	3.02092
5.4298	3.70572
5.3959	3.6508
5.3624	4.29718
5.3294	4.39128
5.2967	4.88879
5.2644	5.08886
5.2326	5.94351
5.2011	6.33993
5.17	6.62006
5.1392	6.66966
5.1088	6.01273
5.0788	6.94717
5.0491	7.04896
5.0198	7.2424
4.9908	7.46506
4.9622	7.96127
4.9338	8.02195
4.9058	8.54214
4.8781	9.63811
4.8508	9.86507
4.8237	10.3596
4.7969	10.4362
4.7704	10.3397
4.7443	9.62576
4.7184	7.65117
4.6927	5.93997
4.6674	5.86668
4.6423	6.38891
4.6175	7.80573
4.593	8.675
4.5687	8.88509
4.5447	8.95076
4.5209	9.31315
4.4974	9.18093
4.4741	10.0476
4.451	10.8562
4.4282	11.6939
4.4057	12.5233
4.3833	13.1148
4.3612	12.7816
4.3393	12.141
4.3176	12.1592
4.2962	12.5849
4.2749	12.6184
4.2539	12.4631
4.233	12.5075
4.2124	12.1103
4.192	11.8501
4.1717	11.4015
4.1517	10.8401
4.1319	9.70402
4.1122	8.80219
4.0927	8.109
4.0734	7.40959
4.0543	6.28785
4.0354	5.06324
4.0166	4.17409
3.9981	3.63628
3.9796	3.2359
3.9614	3.7006
3.9433	3.39731
3.9254	3.90543
3.9077	4.05901
3.8901	4.39452
3.8726	4.04954
3.8554	4.19801
3.8382	4.23187
3.8213	5.2139
3.8045	6.1414
3.7878	8.38488
3.7713	10.1473
3.7549	11.3305
3.7386	12.3401
3.7225	13.3073
3.7066	13.6267
3.6907	14.2558
3.675	14.1367
3.6595	13.811
3.644	14.2263
3.6287	13.0496
3.6136	12.4851
3.5985	11.6751
3.5836	10.2088
3.5688	8.7233
3.5541	8.82198
3.5396	6.89917
3.5251	5.37942
3.5108	4.67761
3.4966	4.0979
3.4825	3.57095
3.4685	3.78548
3.4547	4.84966
3.4409	4.52725
3.4273	4.79626
3.4137	4.62543
3.4003	4.26216
3.387	4.2167
3.3738	4.63798
3.3606	5.03644
3.3476	4.5942
3.3347	5.96665
3.3219	7.34177
3.3092	7.92969
3.2965	8.31789
3.284	9.16989
3.2716	10.0884
3.2593	11.0988
3.247	10.4844
3.2348	11.436
3.2228	10.448
3.2108	10.18
3.1989	10.9849
3.1871	10.7954
3.1754	10.2389
3.1638	10.1727
3.1523	9.29902
3.1408	9.23021
3.1294	8.4387
3.1181	8.42556
3.1069	8.40222
3.0958	7.77841
3.0848	8.69725
3.0738	8.72021
3.0629	7.90423
3.0521	9.09394
3.0413	8.72049
3.0307	9.64151
3.0201	9.14277
3.0096	7.39077
2.9991	8.35598
2.9887	9.13918
2.9784	8.90569
2.9682	7.81303
2.9581	9.1175
2.948	8.32759
2.9379	8.43163
2.928	8.33464
2.9181	7.56659
2.9083	8.29458
2.8985	9.34057
2.8888	7.41576
2.8792	9.1691
2.8697	8.29505
2.8602	9.66501
2.8507	9.81053
2.8413	8.57727
2.832	9.13883
2.8228	8.87546
2.8136	8.30076
2.8045	9.18526
2.7954	7.21878
2.7864	8.82213
2.7774	8.70992
2.7685	7.626
2.7597	8.53047
2.7509	8.8448
2.7422	8.91692
2.7335	10.5929
2.7249	9.56976
2.7163	10.4126
2.7078	10.1348
2.6994	13.1307
2.691	18.0698
2.6826	21.1019
2.6743	23.7069
2.666	26.0445
2.6578	26.4742
2.6497	26.7574
2.6416	27.961
2.6336	29.1309
2.6256	28.6298
2.6176	29.3487
2.6097	29.0783
2.6018	29.3741
2.594	28.9638
2.5863	28.6111
2.5785	26.8949
2.5709	26.1689
2.5633	24.4382
2.5557	21.4707
2.5481	17.7513
2.5406	15.6964
2.5332	15.4997
2.5258	18.1618
2.5184	18.0243
2.5111	18.8123
2.5038	18.409
2.4966	20.0331
2.4894	20.4152
2.4823	21.3066
2.4752	21.9518
2.4681	24.1432
2.4611	24.8434
2.4541	26.3146
2.4471	27.8319
2.4402	28.8716
2.4333	28.5546
2.4265	30.7834
2.4197	30.7205
2.413	32.5438
2.4063	31.6198
2.3996	32.3929
2.3929	32.8217
2.3863	30.8674
2.3798	30.8633
2.3732	32.0612
2.3667	29.365
2.3603	27.055
2.3538	24.3289
2.3474	23.0671
2.3411	22.8467
2.3347	21.0354
2.3285	23.4212
2.3222	25.0736
2.316	25.656
2.3098	26.521
2.3036	28.1628
2.2975	26.4727
2.2914	27.7109
2.2854	29.149
2.2793	31.6434
2.2733	30.5744
2.2674	31.3364
2.2614	30.9807
2.2555	32.2468
2.2497	33.8477
2.2438	33.3524
2.238	36.0208
2.2322	34.6529
2.2265	35.0948
2.2208	34.2244
2.2151	34.9253
2.2094	30.3425
2.2038	35.7174
2.1982	35.557
2.1926	32.9439
2.187	34.5153
2.1815	36.2351
2.176	34.2543
2.1706	34.3768
2.1651	32.2491
2.1597	35.552
2.1543	34.7641
2.149	34.4975
2.1436	35.0431
2.1383	37.383
2.1331	34.2556
2.1278	37.382
2.1226	37.8722
2.1174	36.3777
2.1122	36.0196
2.1071	36.2622
2.1019	37.2888
2.0968	37.3388
2.0918	37.9878
2.0867	36.1676
2.0817	38.2423
2.0767	34.9079
2.0717	38.1324
2.0667	37.2728
2.0618	36.3497
2.0569	37.1968
2.052	35.5526
2.0472	39.0405
2.0423	38.8453
2.0375	38.2987
2.0327	35.8081
2.028	36.5389
2.0232	39.9
2.0185	37.2157
2.0138	37.0178
2.0091	35.8173
2.0044	37.8341
1.9998	35.8696
