Name: Riebeckite Na_2(Fe^2+,Mg)_3,Fe_2^3+Si_8O_22(OH)_2
Type: Mineral
Class: Silicates
Subclass: Inosilicates
Particle Size: 45-125um
Sample No.: IN-7A
Owner: JPL
Origin: Canada, Ontario.
Measurement: Hemispherical reflectance
X Units: Wavelength (micrometers)
Y Units: Reflectance (percent)
wavelength	value
2.5	52.3282
2.494	52.0228
2.488	51.8394
2.482	52.0215
2.476	52.2417
2.47	51.9538
2.464	52.2672
2.458	52.4351
2.452	52.3524
2.446	52.3461
2.44	52.472
2.434	52.1892
2.428	51.8288
2.422	51.212
2.416	50.2884
2.41	49.3157
2.404	48.2974
2.398	47.4918
2.392	47.1294
2.386	47.2921
2.38	47.9226
2.374	48.8377
2.368	49.6199
2.362	49.8543
2.356	49.512
2.35	48.6573
2.344	47.6337
2.338	46.5767
2.332	45.8454
2.326	45.5407
2.32	45.9123
2.314	47.0167
2.308	48.5974
2.302	50.4432
2.296	51.7848
2.29	52.97
2.284	53.7844
2.278	54.3193
2.272	54.5802
2.266	54.7574
2.26	54.8951
2.254	54.992
2.248	55.1076
2.242	55.1575
2.236	55.1848
2.23	55.2004
2.224	55.2192
2.218	55.2561
2.212	55.2007
2.206	55.297
2.2	55.3315
2.194	55.2416
2.188	55.2346
2.182	55.1389
2.176	55.0426
2.17	55.034
2.164	55.0133
2.158	54.9542
2.152	54.799
2.146	54.6726
2.14	54.5059
2.134	54.2136
2.128	53.9711
2.122	53.701
2.116	53.41
2.11	53.1436
2.104	53.0051
2.098	52.9544
2.092	52.9503
2.086	52.9845
2.08	52.9769
2.074	52.9445
2.068	52.9111
2.062	52.8637
2.056	52.7892
2.05	52.7611
2.044	52.5871
2.038	52.5376
2.032	52.3429
2.026	52.1789
2.02	51.9809
2.014	51.9358
2.008	51.7497
2.002	51.6379
1.996	51.4041
1.99	51.1145
1.984	50.912
1.978	50.7054
1.972	50.4716
1.966	50.1859
1.96	49.9746
1.954	49.7781
1.948	49.5201
1.942	49.2998
1.936	49.0992
1.93	48.7243
1.924	48.6352
1.918	48.3603
1.912	48.2074
1.906	48.0566
1.9	47.823
1.894	47.7424
1.888	47.574
1.882	47.452
1.876	47.2107
1.87	46.9096
1.864	46.7443
1.858	46.4734
1.852	46.206
1.846	45.9643
1.84	45.7086
1.834	45.4686
1.828	45.1029
1.822	44.8793
1.816	44.5378
1.81	44.1994
1.804	43.9778
1.798	43.6413
1.792	43.3397
1.786	43.0626
1.78	42.6053
1.774	42.2384
1.768	41.9445
1.762	41.5759
1.756	41.303
1.75	40.9509
1.744	40.6458
1.738	40.1727
1.732	39.8358
1.726	39.5131
1.72	39.211
1.714	38.8085
1.708	38.3899
1.702	38.0369
1.696	37.6377
1.69	37.3037
1.684	36.8702
1.678	36.5314
1.672	36.135
1.666	35.6784
1.66	35.2984
1.654	34.9173
1.648	34.4611
1.642	34.1405
1.636	33.6975
1.63	33.3625
1.624	32.9101
1.618	32.5253
1.612	32.1217
1.606	31.7186
1.6	31.2465
1.594	30.9004
1.588	30.4161
1.582	30.0375
1.576	29.5797
1.57	29.2037
1.564	28.7659
1.558	28.3529
1.552	27.9108
1.546	27.5151
1.54	27.0816
1.534	26.6311
1.528	26.223
1.522	25.8715
1.516	25.409
1.51	25.0145
1.504	24.5887
1.498	24.1457
1.492	23.7199
1.486	23.3083
1.48	22.846
1.474	22.5411
1.468	22.1114
1.462	21.6558
1.456	21.2552
1.45	20.8526
1.444	20.4518
1.438	20.0599
1.432	19.605
1.426	19.2077
1.42	18.831
1.414	18.2376
1.408	17.5943
1.402	17.0566
1.396	16.7025
1.39	16.5783
1.384	16.399
1.378	16.1568
1.372	15.9159
1.366	15.5759
1.36	15.1561
1.354	14.8434
1.348	14.4859
1.342	14.1201
1.336	13.86
1.33	13.4896
1.324	13.2423
1.318	13.0556
1.312	12.6921
1.306	12.4021
1.3	11.9967
1.294	11.8139
1.288	11.562
1.282	11.2666
1.276	11.1208
1.27	10.8093
1.264	10.5838
1.258	10.3336
1.252	10.094
1.246	9.82359
1.24	9.74517
1.234	9.51881
1.228	9.31816
1.222	9.1119
1.216	8.98358
1.21	8.7741
1.204	8.67845
1.198	8.54543
1.192	8.31752
1.186	8.24839
1.18	8.04157
1.174	7.94252
1.168	7.84282
1.162	7.66546
1.156	7.53513
1.15	7.50157
1.144	7.35875
1.138	7.29906
1.132	7.1675
1.126	7.04141
1.12	7.01871
1.114	6.92803
1.108	6.83811
1.102	6.78562
1.096	6.75123
1.09	6.51679
1.084	6.52893
1.078	6.55269
1.072	6.33695
1.066	6.29933
1.06	6.19755
1.054	6.13586
1.048	6.00329
1.042	5.98821
1.036	5.87704
1.03	5.88671
1.024	5.6457
1.018	5.63464
1.012	5.52192
1.006	5.42748
1	5.31858
0.994	5.25834
0.988	5.18296
0.982	5.11276
0.976	4.92178
0.97	4.84863
0.964	4.81699
0.958	4.70862
0.952	4.64092
0.946	4.55955
0.94	4.46723
0.934	4.44004
0.928	4.27559
0.922	4.18028
0.916	4.22766
0.91	4.09977
0.904	4.09128
0.898	3.97052
0.892	3.9577
0.886	3.96774
0.88	3.93799
0.874	3.98009
0.868	3.89249
0.862	3.77146
0.856	4.22073
0.85	4.20617
0.844	4.18916
0.838	4.15828
0.832	4.13904
0.826	4.11227
0.82	4.0933
0.814	4.06152
0.808	4.01861
0.802	3.99558
0.796	3.94831
0.79	3.90992
0.784	3.86209
0.778	3.82102
0.772	3.78323
0.766	3.73367
0.76	3.69129
0.754	3.66
0.748	3.62054
0.742	3.5858
0.736	3.55492
0.73	3.52458
0.724	3.49778
0.718	3.47524
0.712	3.4505
0.706	3.43169
0.7	3.41091
0.694	3.39638
0.688	3.38214
0.682	3.36579
0.676	3.35858
0.67	3.35317
0.664	3.34674
0.658	3.34166
0.652	3.34226
0.646	3.34323
0.64	3.34408
0.634	3.34538
0.628	3.35246
0.622	3.36067
0.616	3.3691
0.61	3.37993
0.604	3.38964
0.598	3.4044
0.592	3.42186
0.586	3.43831
0.58	3.45629
0.574	3.47267
0.568	3.49213
0.562	3.51015
0.556	3.53626
0.55	3.55812
0.544	3.57995
0.538	3.60105
0.532	3.62326
0.526	3.64738
0.52	3.66523
0.514	3.6877
0.508	3.70485
0.502	3.71951
0.496	3.73591
0.49	3.75006
0.484	3.76932
0.478	3.76078
0.472	3.75282
0.466	3.73801
0.46	3.72414
0.454	3.71958
0.448	3.70302
0.442	3.69467
0.436	3.71443
0.43	3.71337
0.424	3.70706
0.418	3.69707
0.412	3.69582
0.406	3.7007
0.4	3.71669
