Name: Vesuvianite Ca_10(Mg,Fe^2+)_2Al_4(Si_2O_7)_2(SiO_4)_5(OH,F)_4
Type: Mineral
Class: Silicates
Subclass: Sorosilicate
Particle Size: 0-45um
Sample No.: SS-3A
Owner: JPL
Origin: USA, California, Riverside County, Crestmore Quarry.
Measurement: Hemispherical reflectance
X Units: Wavelength (micrometers)
Y Units: Reflectance (percent)
wavelength	value
2.5	58.8259
2.494	58.9303
2.488	59.1032
2.482	59.21
2.476	59.3508
2.47	59.5391
2.464	59.7056
2.458	59.6871
2.452	59.7314
2.446	59.7853
2.44	59.6868
2.434	59.6262
2.428	59.7741
2.422	59.8467
2.416	59.9066
2.41	60.0778
2.404	60.1418
2.398	60.256
2.392	60.4709
2.386	60.6173
2.38	60.6767
2.374	60.6168
2.368	60.3933
2.362	60.0516
2.356	59.6331
2.35	59.5482
2.344	59.8219
2.338	60.3382
2.332	61.055
2.326	61.7084
2.32	62.2005
2.314	62.4357
2.308	62.6513
2.302	63.0341
2.296	63.6422
2.29	64.382
2.284	64.9376
2.278	65.4578
2.272	65.8406
2.266	66.187
2.26	66.7731
2.254	67.2914
2.248	67.8615
2.242	68.2691
2.236	68.6166
2.23	68.8865
2.224	69.1694
2.218	69.3531
2.212	69.6611
2.206	70.2754
2.2	71.0844
2.194	71.7207
2.188	72.1585
2.182	72.4707
2.176	72.7361
2.17	72.9801
2.164	73.2397
2.158	73.4023
2.152	73.3981
2.146	73.4704
2.14	73.8721
2.134	74.1719
2.128	74.5729
2.122	74.8112
2.116	74.9603
2.11	75.1618
2.104	75.2611
2.098	75.3742
2.092	75.7478
2.086	75.9995
2.08	76.1786
2.074	76.3045
2.068	76.4978
2.062	76.5277
2.056	76.668
2.05	76.7113
2.044	76.8881
2.038	76.9078
2.032	76.9477
2.026	76.866
2.02	76.8095
2.014	76.8119
2.008	76.7859
2.002	76.5985
1.996	76.3833
1.99	76.0487
1.984	76.041
1.978	76.2408
1.972	76.3081
1.966	76.4389
1.96	76.6607
1.954	76.8671
1.948	76.9704
1.942	77.0515
1.936	77.14
1.93	77.2706
1.924	77.3497
1.918	77.4491
1.912	77.4916
1.906	77.7141
1.9	78.0025
1.894	78.1896
1.888	78.534
1.882	78.7013
1.876	78.8338
1.87	78.8832
1.864	79.0805
1.858	79.1424
1.852	79.2116
1.846	79.3003
1.84	79.3531
1.834	79.383
1.828	79.4508
1.822	79.5859
1.816	79.5775
1.81	79.6691
1.804	79.6664
1.798	79.6753
1.792	79.7287
1.786	79.6958
1.78	79.7076
1.774	79.6582
1.768	79.7331
1.762	79.7198
1.756	79.7188
1.75	79.8259
1.744	79.8524
1.738	79.8935
1.732	79.9348
1.726	80.0305
1.72	79.9941
1.714	80.0858
1.708	80
1.702	80.0049
1.696	80.0556
1.69	79.9288
1.684	80.0352
1.678	80.0168
1.672	80.1042
1.666	80.1805
1.66	80.2344
1.654	80.2899
1.648	80.2777
1.642	80.3978
1.636	80.363
1.63	80.4018
1.624	80.4415
1.618	80.462
1.612	80.592
1.606	80.6132
1.6	80.5451
1.594	80.5456
1.588	80.4498
1.582	80.6015
1.576	80.5993
1.57	80.6305
1.564	80.5926
1.558	80.5834
1.552	80.5261
1.546	80.5268
1.54	80.5257
1.534	80.5487
1.528	80.4692
1.522	80.4176
1.516	80.4758
1.51	80.3683
1.504	80.3295
1.498	80.2132
1.492	80.1983
1.486	80.0666
1.48	79.9312
1.474	79.85
1.468	79.7631
1.462	79.68
1.456	79.6191
1.45	79.5819
1.444	79.2018
1.438	78.6942
1.432	78.7702
1.426	79.2638
1.42	79.3482
1.414	78.6041
1.408	78.1035
1.402	78.0689
1.396	78.1249
1.39	78.8771
1.384	80.1619
1.378	80.5119
1.372	80.7769
1.366	80.7828
1.36	80.8454
1.354	80.8404
1.348	80.8788
1.342	80.8982
1.336	80.9915
1.33	80.9012
1.324	80.8388
1.318	80.8368
1.312	80.827
1.306	80.8913
1.3	80.8538
1.294	80.774
1.288	80.822
1.282	80.7938
1.276	80.7532
1.27	80.7646
1.264	80.6745
1.258	80.6948
1.252	80.7377
1.246	80.7297
1.24	80.6868
1.234	80.5973
1.228	80.5342
1.222	80.5982
1.216	80.533
1.21	80.5137
1.204	80.4715
1.198	80.3883
1.192	80.3998
1.186	80.3644
1.18	80.2842
1.174	80.3296
1.168	80.2019
1.162	80.2463
1.156	80.2159
1.15	80.1289
1.144	80.1058
1.138	80.0705
1.132	80.0674
1.126	80.0047
1.12	79.9561
1.114	80.0196
1.108	79.906
1.102	79.9127
1.096	79.8981
1.09	79.7981
1.084	79.7803
1.078	79.7879
1.072	79.7626
1.066	79.8066
1.06	79.734
1.054	79.7038
1.048	79.5927
1.042	79.6796
1.036	79.6237
1.03	79.5344
1.024	79.5414
1.018	79.5475
1.012	79.4787
1.006	79.4282
1	79.3655
0.994	79.3178
0.988	79.176
0.982	79.1502
0.976	78.9832
0.97	78.7746
0.964	78.5173
0.958	78.1474
0.952	77.8612
0.946	77.5217
0.94	77.1642
0.934	77.2103
0.928	77.2787
0.922	77.3972
0.916	77.5785
0.91	77.7185
0.904	77.9856
0.898	78.1534
0.892	78.301
0.886	78.4336
0.88	78.5908
0.874	78.6489
0.868	78.6656
0.862	78.8507
0.856	79.2009
0.85	79.2627
0.844	79.3394
0.838	79.3311
0.832	79.4084
0.826	79.4004
0.82	79.4439
0.814	79.4289
0.808	79.4578
0.802	79.4497
0.796	79.4006
0.79	79.3676
0.784	79.3838
0.778	79.2825
0.772	79.291
0.766	79.2485
0.76	79.2309
0.754	79.1894
0.748	79.1445
0.742	79.1261
0.736	79.0587
0.73	79.0826
0.724	79.0043
0.718	78.996
0.712	78.912
0.706	78.8603
0.7	78.7922
0.694	78.6825
0.688	78.608
0.682	78.4943
0.676	78.374
0.67	78.2548
0.664	78.16
0.658	78.042
0.652	77.9429
0.646	77.8292
0.64	77.7072
0.634	77.59
0.628	77.484
0.622	77.3976
0.616	77.3375
0.61	77.2988
0.604	77.2372
0.598	77.186
0.592	77.1567
0.586	77.0612
0.58	76.9609
0.574	76.8626
0.568	76.7238
0.562	76.5921
0.556	76.4122
0.55	76.2413
0.544	76.0196
0.538	75.7976
0.532	75.5716
0.526	75.4137
0.52	75.3465
0.514	75.249
0.508	75.065
0.502	74.7167
0.496	74.2716
0.49	73.7418
0.484	73.17
0.478	72.5798
0.472	71.7254
0.466	70.3118
0.46	68.7324
0.454	68.1021
0.448	66.7919
0.442	65.4478
0.436	64.4577
0.43	63.4607
0.424	62.2486
0.418	60.9249
0.412	59.8274
0.406	58.5294
0.4	56.7971
