Name: Marcasite FeS_2
Type: Mineral
Class: Sulfides
Particle Size: 125-500um
Sample No.: S-10A
Owner: JPL
Origin: USA, Indiana, Jasper County, Rensselaer, Pleasant Ridge Quarry.
Measurement: Hemispherical reflectance
X Units: Wavelength (micrometers)
Y Units: Reflectance (percent)
wavelength	value
2.5	12.4888
2.494	12.1408
2.488	12.263
2.482	12.0768
2.476	12.1053
2.47	12
2.464	12.1817
2.458	12.0858
2.452	12.1486
2.446	12.1146
2.44	12.1253
2.434	12.1031
2.428	12.146
2.422	12.1632
2.416	12.1815
2.41	12.091
2.404	12.0659
2.398	12.0348
2.392	12.0435
2.386	12.1262
2.38	12.0773
2.374	12.1092
2.368	12.0728
2.362	12.1413
2.356	12.1276
2.35	12.0875
2.344	12.0669
2.338	12.0223
2.332	12.0301
2.326	12.0196
2.32	12.0126
2.314	11.9863
2.308	12.0096
2.302	12.0092
2.296	12.0026
2.29	11.9608
2.284	12.005
2.278	11.9433
2.272	11.8603
2.266	11.8469
2.26	11.8991
2.254	11.8661
2.248	11.7923
2.242	11.8791
2.236	11.7388
2.23	11.7852
2.224	11.7997
2.218	11.8449
2.212	11.8917
2.206	11.8201
2.2	11.7442
2.194	11.7322
2.188	11.8499
2.182	11.7716
2.176	11.7351
2.17	11.6979
2.164	11.8033
2.158	11.7489
2.152	11.7804
2.146	11.7494
2.14	11.6691
2.134	11.6414
2.128	11.6388
2.122	11.6301
2.116	11.5331
2.11	11.4348
2.104	11.388
2.098	11.2694
2.092	11.3716
2.086	11.3383
2.08	11.3609
2.074	11.3331
2.068	11.3343
2.062	11.3048
2.056	11.3398
2.05	11.2774
2.044	11.2595
2.038	11.3528
2.032	11.2828
2.026	11.2144
2.02	11.2244
2.014	11.1998
2.008	11.1864
2.002	11.1542
1.996	11.2325
1.99	11.0471
1.984	11.0854
1.978	11.0626
1.972	11.0302
1.966	11.0207
1.96	10.9303
1.954	11.0334
1.948	10.9898
1.942	10.8923
1.936	10.8609
1.93	10.8305
1.924	10.8335
1.918	10.8786
1.912	10.8083
1.906	10.8699
1.9	10.873
1.894	10.8542
1.888	10.8437
1.882	10.9082
1.876	10.8875
1.87	10.7398
1.864	10.8426
1.858	10.8302
1.852	10.8382
1.846	10.8846
1.84	10.8002
1.834	10.7839
1.828	10.7737
1.822	10.7352
1.816	10.7119
1.81	10.7293
1.804	10.7127
1.798	10.6229
1.792	10.643
1.786	10.6355
1.78	10.5499
1.774	10.5893
1.768	10.5982
1.762	10.6138
1.756	10.5595
1.75	10.5339
1.744	10.5265
1.738	10.4639
1.732	10.4998
1.726	10.4987
1.72	10.4671
1.714	10.4312
1.708	10.404
1.702	10.376
1.696	10.3633
1.69	10.3641
1.684	10.2565
1.678	10.1875
1.672	10.303
1.666	10.3277
1.66	10.1859
1.654	10.258
1.648	10.2071
1.642	10.2507
1.636	10.1616
1.63	10.1204
1.624	10.0913
1.618	10.0517
1.612	10.0267
1.606	10.0122
1.6	10.0149
1.594	9.88115
1.588	9.91582
1.582	9.92213
1.576	9.89565
1.57	9.86864
1.564	9.80857
1.558	9.79969
1.552	9.742
1.546	9.72748
1.54	9.65881
1.534	9.69193
1.528	9.65358
1.522	9.63721
1.516	9.64931
1.51	9.52947
1.504	9.51066
1.498	9.51731
1.492	9.46403
1.486	9.41874
1.48	9.43573
1.474	9.39159
1.468	9.36976
1.462	9.35913
1.456	9.28581
1.45	9.27523
1.444	9.32328
1.438	9.26045
1.432	9.20549
1.426	9.12468
1.42	9.12661
1.414	9.12522
1.408	9.10784
1.402	9.12689
1.396	9.11676
1.39	9.05234
1.384	9.12692
1.378	8.97442
1.372	8.95141
1.366	9.01798
1.36	8.91053
1.354	8.85725
1.348	8.76727
1.342	8.74999
1.336	8.77461
1.33	8.73887
1.324	8.70726
1.318	8.72416
1.312	8.73302
1.306	8.68117
1.3	8.62118
1.294	8.61337
1.288	8.54899
1.282	8.53699
1.276	8.54019
1.27	8.42251
1.264	8.4835
1.258	8.45051
1.252	8.43121
1.246	8.4158
1.24	8.35272
1.234	8.37651
1.228	8.33133
1.222	8.23751
1.216	8.27419
1.21	8.25012
1.204	8.20326
1.198	8.1744
1.192	8.15937
1.186	8.12576
1.18	8.08553
1.174	8.03963
1.168	8.03307
1.162	8.10925
1.156	7.93966
1.15	7.93239
1.144	7.9436
1.138	7.93498
1.132	7.8802
1.126	7.74352
1.12	7.75813
1.114	7.69361
1.108	7.76883
1.102	7.6561
1.096	7.74385
1.09	7.5502
1.084	7.50422
1.078	7.61666
1.072	7.54704
1.066	7.44831
1.06	7.52892
1.054	7.39753
1.048	7.42476
1.042	7.31984
1.036	7.36446
1.03	7.31544
1.024	7.31601
1.018	7.18463
1.012	7.19933
1.006	7.11939
1	7.1453
0.994	7.15523
0.988	7.07127
0.982	7.06407
0.976	7.03634
0.97	7.01312
0.964	7.01941
0.958	7.03876
0.952	6.95003
0.946	7.0083
0.94	6.95763
0.934	6.94998
0.928	6.90585
0.922	6.93699
0.916	6.85267
0.91	6.83797
0.904	6.86732
0.898	6.77221
0.892	6.7768
0.886	6.77393
0.88	6.78397
0.874	6.70792
0.868	6.75075
0.862	6.84769
0.856	6.93063
0.85	6.9562
0.844	6.95678
0.838	6.95341
0.832	6.95916
0.826	6.95297
0.82	6.95935
0.814	6.95644
0.808	6.94465
0.802	6.94724
0.796	6.94552
0.79	6.92521
0.784	6.9247
0.778	6.91707
0.772	6.90038
0.766	6.88295
0.76	6.87649
0.754	6.84823
0.748	6.83742
0.742	6.8062
0.736	6.78226
0.73	6.75542
0.724	6.71734
0.718	6.68376
0.712	6.65046
0.706	6.61137
0.7	6.57004
0.694	6.53784
0.688	6.50005
0.682	6.46491
0.676	6.43051
0.67	6.40004
0.664	6.36818
0.658	6.33835
0.652	6.31707
0.646	6.29419
0.64	6.2698
0.634	6.2509
0.628	6.23143
0.622	6.21398
0.616	6.19384
0.61	6.17441
0.604	6.15053
0.598	6.12462
0.592	6.09374
0.586	6.04582
0.58	5.98897
0.574	5.91437
0.568	5.81511
0.562	5.69154
0.556	5.53173
0.55	5.34954
0.544	5.14639
0.538	4.92843
0.532	4.70301
0.526	4.49132
0.52	4.29618
0.514	4.13563
0.508	3.99046
0.502	3.86347
0.496	3.75818
0.49	3.6805
0.484	3.62493
0.478	3.60622
0.472	3.60014
0.466	3.60996
0.46	3.63081
0.454	3.65321
0.448	3.67191
0.442	3.67325
0.436	3.67051
0.43	3.67161
0.424	3.68206
0.418	3.70291
0.412	3.73468
0.406	3.77763
0.4	3.83629
