Name: Brass plate
Type: Manmade materials
Class: Reflectance target
Particle Size: Solid
Sample No.: SN: ILF-17464-2-1
Owner: JPL
Origin: Labsphere, P.O. Box 70, Shaker Street, North Sutton, NH 03260
Description: Measurement made at bottom center. Field Brass 2.
Measurement: Hemispherical Reflectance
X Units: Wavelength (micrometers)
Y Units: Reflectence (percent)
wavelength	value
15.3853	86.4328
15.1161	86.5694
14.8563	86.3418
14.6052	86.3945
14.3624	86.6566
14.1276	86.4207
13.9004	86.4017
13.6803	86.3203
13.4671	86.3347
13.2604	86.3308
13.06	86.2281
12.8656	86.1665
12.6769	85.9254
12.4936	85.8591
12.3155	85.9038
12.1425	85.8637
11.9742	86.0474
11.8106	85.904
11.6513	85.9379
11.4963	86.0688
11.3454	85.9288
11.1983	85.665
11.0551	85.6631
10.9154	85.5861
10.7793	85.5615
10.6465	85.7163
10.5169	85.5089
10.3904	85.5486
10.267	85.6305
10.1464	85.478
10.0287	85.48
9.91364	85.3623
9.80119	85.2921
9.69128	85.333
9.5838	85.1955
9.47867	85.2687
9.37583	85.286
9.27519	85.409
9.17669	85.4749
9.08027	85.5431
8.98585	85.7578
8.89337	85.662
8.80277	85.5258
8.714	85.5623
8.62701	85.5051
8.54174	85.5048
8.45813	85.5345
8.37614	85.6009
8.29573	85.528
8.21685	85.5669
8.13946	85.6464
8.0635	85.7377
7.98896	85.8964
7.91578	86.1511
7.84392	86.3759
7.77337	86.729
7.70406	86.7276
7.63598	86.8637
7.5691	86.9926
7.50338	86.9849
7.43879	87.0874
7.37529	87.0455
7.31288	87.0105
7.25152	87.027
7.19117	87.0246
7.13182	87.0179
7.07344	86.9743
7.01601	87.0992
6.95951	87.6128
6.90391	87.3131
6.84918	87.4184
6.79532	87.6584
6.74231	87.1193
6.69011	87.2944
6.63871	88.4663
6.5881	87.5874
6.53825	87.2301
6.48915	88.4102
6.44079	87.2753
6.39314	86.9326
6.34618	87.54
6.29992	86.7074
6.25432	86.7078
6.20938	86.709
6.16508	86.9184
6.12141	87.1706
6.07835	87.4984
6.0359	87.176
5.99403	87.5189
5.95274	87.2123
5.91201	87.1375
5.87184	87.4356
5.83221	87.4713
5.79311	87.1135
5.75453	87.2468
5.71646	87.3345
5.6789	87.1507
5.64182	87.4327
5.60522	86.9789
5.5691	86.9719
5.53344	86.8307
5.49823	86.9164
5.46347	87.0756
5.42914	86.8329
5.39525	86.8135
5.36177	86.7773
5.32871	86.7809
5.29605	86.8754
5.26379	86.7925
5.23192	86.7937
5.20044	86.7978
5.16933	86.8362
5.13859	86.7824
5.10821	86.8361
5.07819	86.8032
5.04852	86.7829
5.0192	86.799
4.99021	86.7608
4.96156	86.8217
4.93324	86.8662
4.90524	86.866
4.87755	86.8152
4.85017	86.8226
4.8231	86.9442
4.79633	86.7641
4.76986	86.8465
4.74367	86.86
4.71777	86.8391
4.69216	86.7808
4.66682	86.8523
4.64175	86.8504
4.61695	86.8586
4.59241	86.8319
4.56814	86.8576
4.54411	86.7832
4.52034	86.8385
4.49682	86.8026
4.47354	86.8088
4.4505	86.7913
4.4277	86.8638
4.40513	86.7282
4.38278	86.8231
4.36067	86.7504
4.33877	86.8225
4.3171	86.9012
4.29564	86.8361
4.27439	86.9029
4.25335	86.885
4.23252	86.9083
4.21189	86.8886
4.19146	86.811
4.17123	86.7244
4.15119	86.7327
4.13134	86.7097
4.11168	86.6645
4.09221	86.7237
4.07292	86.7368
4.05382	86.7576
4.03489	86.6705
4.01614	86.6896
3.99756	86.6413
3.97915	86.746
3.96091	86.7507
3.94284	86.6756
3.92493	86.7504
3.90718	86.6379
3.8896	86.6799
3.87217	86.6326
3.8549	86.6102
3.83777	86.7343
3.82081	86.6207
3.80399	86.6368
3.78731	86.7152
3.77079	86.6612
3.7544	86.536
3.73816	86.6044
3.72206	86.5972
3.7061	86.5716
3.69027	86.6104
3.67458	86.6494
3.65902	86.6394
3.64359	86.6301
3.6283	86.651
3.61312	86.5759
3.59808	86.5819
3.58316	86.6869
3.56836	86.5667
3.55369	86.5312
3.53914	86.5512
3.5247	86.5485
3.51038	86.712
3.49618	86.6998
3.48209	86.5631
3.46812	86.6458
3.45425	86.5591
3.4405	86.6487
3.42686	86.8175
3.41332	86.667
3.39989	86.6406
3.38657	86.5597
3.37335	86.6026
3.36023	86.6208
3.34721	86.5076
3.3343	86.6356
3.32148	86.5747
3.30876	86.4836
3.29614	86.533
3.28362	86.5292
3.27119	86.6186
3.25885	86.5649
3.24661	86.5522
3.23446	86.6406
3.22239	86.5983
3.21042	86.4888
3.19854	86.5401
3.18674	86.5389
3.17504	86.5108
3.16341	86.5109
3.15187	86.6172
3.14042	86.5626
3.12905	86.5829
3.11776	86.5333
3.10655	86.5501
3.09542	86.5358
3.08437	86.6309
3.0734	86.6116
3.06251	86.3907
3.0517	86.6316
3.04096	86.5467
3.03029	86.6151
3.0197	86.4502
3.00919	86.5534
2.99875	86.4764
2.98838	86.4712
2.97808	86.5691
2.96785	86.5328
2.95769	86.586
2.9476	86.4628
2.93758	86.5786
2.92763	86.4926
2.91775	86.5144
2.90793	86.5201
2.89817	86.3737
2.88849	86.4767
2.87886	86.4718
2.8693	86.5161
2.85981	86.5041
2.85038	86.3904
2.841	86.3914
2.83169	86.5314
2.82245	86.4624
2.81326	86.3306
2.80413	86.6931
2.79506	86.3226
2.78605	86.7151
2.77709	86.1024
2.7682	86.6959
2.75936	86.3473
2.75057	86.2913
2.74185	86.7458
2.73318	86.4131
2.72456	86.8183
2.71599	86.1391
2.70748	86.2582
2.69903	86.3493
2.69062	86.2064
2.68227	86.3294
2.67397	86.404
2.66572	87.1467
2.65753	86.1838
2.64938	86.1144
2.64128	86.1534
2.63323	86.3857
2.62523	86.3694
2.61728	86.7189
2.60938	86.4467
2.60152	86.3348
2.59371	87.0067
2.58595	86.1938
2.57824	86.1518
2.57057	86.2298
2.56294	86.4394
2.55536	86.1641
2.54783	86.1474
2.54034	86.0189
2.53289	86.1659
2.52549	86.058
2.51813	86.0738
2.51082	86.0235
2.50354	86.0421
2.49631	86.0797
2.48912	86.0553
2.48197	85.9923
2.47486	85.9425
2.46779	85.9887
2.46077	85.9398
2.45378	85.9282
2.44683	85.9253
2.43992	85.9916
2.43305	85.9899
2.42622	85.7633
2.41943	86.055
2.41267	85.8971
2.40595	85.8678
2.39928	86.0382
2.39263	85.96
2.38603	85.8115
2.37946	85.9918
2.37292	85.8125
2.36642	85.9461
2.35996	85.9095
2.35353	85.947
2.34714	85.926
2.34078	85.8131
2.33446	85.6927
2.32817	85.8384
2.32191	86.013
2.31569	85.8739
2.3095	85.7586
2.30335	85.8454
2.29722	85.8724
2.29113	85.6558
2.28507	85.7675
2.27905	85.888
2.27305	85.8168
2.26709	85.6072
2.26116	85.7673
2.25526	85.7044
2.24939	85.6131
2.24355	85.6839
2.23774	85.7676
2.23196	85.6634
2.22621	85.854
2.22049	85.5935
2.21479	85.6566
2.20913	85.6307
2.2035	85.726
2.19789	85.7198
2.19232	85.5576
2.18677	85.7161
2.18125	85.4998
2.17576	85.6274
2.17029	85.5704
2.16486	85.5086
2.15945	85.6226
2.15406	85.6756
2.14871	85.4844
2.14338	85.61
2.13808	85.6152
2.1328	85.4405
2.12755	85.8281
2.12232	85.5264
2.11712	85.5597
2.11195	85.6044
2.1068	85.5222
2.10168	85.2576
2.09658	85.5066
2.0915	85.7395
2.08645	85.6291
2.08143	85.3854
2.07643	85.547
2.07145	85.5729
2.06649	85.7405
2.06156	85.464
2.05666	85.3568
2.05177	85.5242
2.04691	85.5894
2.04208	85.5628
2.03726	85.3805
2.03247	85.386
2.0277	85.8111
2.02295	85.448
2.01823	85.2386
2.01353	85.5928
2.00885	85.218
2.00419	85.4523
