Name: Corundum Al_2O_3
Type: Mineral
Class: Oxides
Particle Size: 45-125um
Sample No.: O-15A
Owner: JPL
Wavelength Range: VNIR-SWIR
Description: Synthetic corundum.
Measurement: Hemispherical reflectance
X Units: Wavelength (micrometers)
Y Units: Reflectance (percent)
wavelength	value
0.4	92.37
0.403	92.47
0.406	92.53
0.409	92.47
0.412	92.77
0.415	92.59
0.418	92.66
0.421	92.65
0.424	92.36
0.427	92.72
0.43	92.72
0.433	92.6
0.436	92.71
0.439	92.53
0.442	92.66
0.445	92.72
0.448	92.78
0.451	92.78
0.454	92.8
0.457	92.86
0.46	92.92
0.463	92.92
0.466	92.98
0.469	92.69
0.472	92.93
0.475	93.06
0.478	92.77
0.481	93.07
0.484	92.9
0.487	92.96
0.49	92.86
0.493	92.7
0.496	93
0.499	92.9
0.502	92.96
0.505	92.96
0.508	92.9
0.511	92.95
0.514	92.9
0.517	93.02
0.52	92.9
0.523	92.96
0.526	92.96
0.529	92.9
0.532	92.96
0.535	92.76
0.538	92.82
0.541	92.76
0.544	93
0.547	92.95
0.55	92.89
0.553	93.01
0.556	92.89
0.559	93.18
0.562	93.37
0.565	93.25
0.568	93.13
0.571	93.13
0.574	92.94
0.577	92.81
0.58	92.75
0.583	92.63
0.586	92.87
0.589	92.98
0.592	92.86
0.595	92.75
0.598	92.69
0.601	93.13
0.604	93.01
0.607	92.9
0.61	92.85
0.613	92.84
0.616	92.9
0.619	92.73
0.622	92.73
0.625	92.61
0.628	92.56
0.631	92.84
0.634	92.67
0.637	92.67
0.64	92.73
0.643	92.61
0.646	92.73
0.649	92.61
0.652	92.55
0.655	92.61
0.658	92.61
0.661	92.61
0.664	92.61
0.667	92.56
0.67	92.56
0.673	92.5
0.676	92.67
0.679	92.56
0.682	92.5
0.685	92.5
0.688	92.55
0.691	92.56
0.694	92.61
0.697	92.5
0.7	92.41
0.703	92.68
0.706	92.67
0.709	92.67
0.712	92.5
0.715	92.56
0.718	92.61
0.721	92.62
0.724	92.62
0.727	92.5
0.73	92.5
0.733	92.68
0.736	92.73
0.739	92.61
0.742	92.45
0.745	92.39
0.748	92.5
0.751	92.56
0.754	92.56
0.757	92.33
0.76	92.27
0.763	92.45
0.766	92.38
0.769	92.62
0.772	92.27
0.775	92.33
0.778	92.39
0.781	92.45
0.784	92.45
0.787	92.28
0.79	92.45
0.793	92.39
0.796	92.33
0.799	92.49
0.808	91.76
0.82	91.81
0.832	91.75
0.844	91.75
0.856	91.8
0.868	91.86
0.88	91.68
0.892	91.74
0.904	91.62
0.916	91.56
0.928	91.45
0.94	91.5
0.952	91.56
0.964	91.68
0.976	91.56
0.988	91.44
1	91.32
1.012	91.32
1.024	91.38
1.036	91.38
1.048	91.44
1.06	91.38
1.072	91.4
1.084	91.43
1.096	91.38
1.108	91.32
1.12	91.42
1.132	91.23
1.144	91.2
1.156	91.2
1.168	91.1
1.18	90.98
1.192	90.86
1.204	90.81
1.216	90.72
1.228	90.61
1.24	90.7
1.252	90.6
1.264	90.57
1.276	90.55
1.288	90.53
1.3	90.33
1.312	90.21
1.324	90.13
1.336	89.94
1.348	89.75
1.36	89.57
1.372	88.19
1.384	87.4
1.396	87.19
1.408	87.03
1.42	87
1.432	86.95
1.444	86.68
1.456	86.76
1.468	86.96
1.48	87.07
1.492	87.18
1.504	87.12
1.516	87.3
1.528	87.56
1.54	87.49
1.552	87.55
1.564	87.52
1.576	87.39
1.588	87.32
1.6	87.28
1.612	87.22
1.624	87.12
1.636	87.09
1.648	87.27
1.66	87.14
1.672	87.27
1.684	87.15
1.696	87.15
1.708	87.23
1.72	87
1.732	86.7
1.744	86.54
1.756	86.51
1.768	86.37
1.78	86.31
1.792	86.23
1.804	86.22
1.816	86.1
1.828	85.96
1.84	85.6
1.852	84.85
1.864	83.11
1.876	80.81
1.888	80.15
1.9	79.5
1.912	78.73
1.924	78.21
1.936	78
1.948	78.09
1.96	78.25
1.972	78.54
1.984	78.92
1.996	79.33
2.008	79.66
2.02	80.02
2.032	80.11
2.044	80.29
2.056	80.5
2.068	80.73
2.08	81.05
2.092	81.19
2.104	81.37
2.116	81.45
2.128	81.36
2.14	81.15
2.152	80.83
2.164	80.45
2.176	80.16
2.188	79.76
2.2	79.35
2.212	78.86
2.224	78.56
2.236	78.16
2.248	77.94
2.26	77.78
2.272	77.71
2.284	77.41
2.296	77.07
2.308	76.83
2.32	76.6
2.332	76.21
2.344	75.55
2.356	75.25
2.368	75.22
2.38	75.12
2.392	74.73
2.404	74.46
2.416	74.1
2.428	73.69
2.44	73.11
2.452	72.77
2.464	72.11
2.476	71.73
2.488	71.68
2.5	71.68
