Name: Fluorite CaF_2
Type: Mineral
Class: Halides
Particle Size: 0-45um
Sample No.: H-2B
Owner: JPL
Origin: United Kingdom, England, Durham County, Weardal.
Measurement: Hemispherical reflectance
X Units: Wavelength (micrometers)
Y Units: Reflectance (percent)
wavelength	value
2.5	53.1699
2.494	52.8331
2.488	52.9871
2.482	53.1041
2.476	53.0496
2.47	53.1882
2.464	53.2584
2.458	53.2613
2.452	53.3007
2.446	53.3821
2.44	53.4665
2.434	53.5408
2.428	53.5863
2.422	53.6108
2.416	53.6725
2.41	53.6714
2.404	53.7351
2.398	53.8456
2.392	53.895
2.386	53.8497
2.38	53.9511
2.374	53.9762
2.368	54.1381
2.362	54.116
2.356	54.1568
2.35	54.1796
2.344	54.2387
2.338	54.2067
2.332	54.202
2.326	54.108
2.32	54.1051
2.314	54.1138
2.308	54.1349
2.302	54.1596
2.296	54.1712
2.29	54.0977
2.284	54.1305
2.278	54.1407
2.272	54.1021
2.266	54.1483
2.26	54.1442
2.254	54.1125
2.248	54.0773
2.242	54.1499
2.236	54.158
2.23	54.1974
2.224	54.2237
2.218	54.2616
2.212	54.3735
2.206	54.4193
2.2	54.4569
2.194	54.5278
2.188	54.5682
2.182	54.5953
2.176	54.7069
2.17	54.8591
2.164	54.9059
2.158	55.0412
2.152	55.1723
2.146	55.1284
2.14	55.1476
2.134	55.0839
2.128	54.9349
2.122	54.8472
2.116	54.6164
2.11	54.4794
2.104	54.2344
2.098	54.1489
2.092	54.1604
2.086	54.2215
2.08	54.2617
2.074	54.3272
2.068	54.3712
2.062	54.366
2.056	54.4538
2.05	54.4615
2.044	54.5316
2.038	54.5703
2.032	54.5889
2.026	54.562
2.02	54.5936
2.014	54.5739
2.008	54.5898
2.002	54.5363
1.996	54.5381
1.99	54.5391
1.984	54.4542
1.978	54.4433
1.972	54.3971
1.966	54.4511
1.96	54.3838
1.954	54.4205
1.948	54.4176
1.942	54.4983
1.936	54.5178
1.93	54.5487
1.924	54.5469
1.918	54.6251
1.912	54.724
1.906	54.7171
1.9	54.7914
1.894	54.88
1.888	54.9042
1.882	54.9443
1.876	54.9419
1.87	55.0311
1.864	55.0081
1.858	55.0906
1.852	55.1165
1.846	55.0682
1.84	55.0787
1.834	55.15
1.828	55.0709
1.822	55.1535
1.816	55.0829
1.81	55.14
1.804	55.15
1.798	55.1698
1.792	55.1874
1.786	55.1576
1.78	55.1574
1.774	55.2206
1.768	55.198
1.762	55.2342
1.756	55.2153
1.75	55.1853
1.744	55.2809
1.738	55.2988
1.732	55.3058
1.726	55.3443
1.72	55.3682
1.714	55.3338
1.708	55.3104
1.702	55.3744
1.696	55.3183
1.69	55.3041
1.684	55.322
1.678	55.3309
1.672	55.3552
1.666	55.3058
1.66	55.3033
1.654	55.367
1.648	55.3078
1.642	55.3745
1.636	55.3656
1.63	55.3096
1.624	55.3917
1.618	55.4
1.612	55.3939
1.606	55.4243
1.6	55.4574
1.594	55.4003
1.588	55.4102
1.582	55.4291
1.576	55.3633
1.57	55.4988
1.564	55.4237
1.558	55.4107
1.552	55.3493
1.546	55.4054
1.54	55.4387
1.534	55.4211
1.528	55.4096
1.522	55.464
1.516	55.4546
1.51	55.3872
1.504	55.3733
1.498	55.4281
1.492	55.4446
1.486	55.4506
1.48	55.4165
1.474	55.4179
1.468	55.4097
1.462	55.3921
1.456	55.4602
1.45	55.4245
1.444	55.4742
1.438	55.4539
1.432	55.4334
1.426	55.4574
1.42	55.4032
1.414	55.4773
1.408	55.5009
1.402	55.5487
1.396	55.6409
1.39	55.5703
1.384	55.5906
1.378	55.6072
1.372	55.6
1.366	55.619
1.36	55.5844
1.354	55.5443
1.348	55.5579
1.342	55.5667
1.336	55.575
1.33	55.6417
1.324	55.6227
1.318	55.5916
1.312	55.6506
1.306	55.6673
1.3	55.6776
1.294	55.6519
1.288	55.7197
1.282	55.6437
1.276	55.616
1.27	55.6555
1.264	55.7096
1.258	55.7238
1.252	55.7575
1.246	55.7082
1.24	55.7573
1.234	55.7396
1.228	55.7203
1.222	55.7201
1.216	55.7571
1.21	55.7508
1.204	55.754
1.198	55.7341
1.192	55.7966
1.186	55.7719
1.18	55.7971
1.174	55.8086
1.168	55.8663
1.162	55.8692
1.156	55.8608
1.15	55.8727
1.144	55.8846
1.138	55.9187
1.132	55.9323
1.126	55.9896
1.12	55.9817
1.114	55.9934
1.108	56.0512
1.102	56.0259
1.096	56.1076
1.09	56.0618
1.084	56.0509
1.078	56.1092
1.072	56.1335
1.066	56.1303
1.06	56.0757
1.054	56.115
1.048	56.1725
1.042	56.1947
1.036	56.2178
1.03	56.1855
1.024	56.2401
1.018	56.1703
1.012	56.2308
1.006	56.3133
1	56.2307
0.994	56.302
0.988	56.3044
0.982	56.3499
0.976	56.338
0.97	56.3076
0.964	56.372
0.958	56.345
0.952	56.4545
0.946	56.4896
0.94	56.5026
0.934	56.5134
0.928	56.5344
0.922	56.4938
0.916	56.538
0.91	56.5888
0.904	56.5786
0.898	56.5653
0.892	56.6442
0.886	56.7809
0.88	56.7315
0.874	56.7893
0.868	56.8025
0.862	56.8368
0.856	57.0918
0.85	57.1458
0.844	57.1416
0.838	57.137
0.832	57.1621
0.826	57.17
0.82	57.1626
0.814	57.2024
0.808	57.2517
0.802	57.2077
0.796	57.2119
0.79	57.1917
0.784	57.2135
0.778	57.2346
0.772	57.1786
0.766	57.1662
0.76	57.1854
0.754	57.1936
0.748	57.1735
0.742	57.1965
0.736	57.2115
0.73	57.1956
0.724	57.1976
0.718	57.2104
0.712	57.2026
0.706	57.2298
0.7	57.2005
0.694	57.2176
0.688	57.2188
0.682	57.2207
0.676	57.2403
0.67	57.226
0.664	57.2284
0.658	57.2318
0.652	57.2114
0.646	57.2105
0.64	57.2019
0.634	57.1928
0.628	57.191
0.622	57.1749
0.616	57.1622
0.61	57.1582
0.604	57.1546
0.598	57.1677
0.592	57.1786
0.586	57.1638
0.58	57.1285
0.574	57.1265
0.568	57.101
0.562	57.0776
0.556	57.0391
0.55	56.9928
0.544	56.9594
0.538	56.9168
0.532	56.8669
0.526	56.7975
0.52	56.7593
0.514	56.7094
0.508	56.6324
0.502	56.5529
0.496	56.4854
0.49	56.4078
0.484	56.3329
0.478	56.2606
0.472	56.1993
0.466	56.1297
0.46	56.0627
0.454	55.98
0.448	55.8582
0.442	55.7088
0.436	55.5581
0.43	55.3825
0.424	55.1745
0.418	55.0029
0.412	54.8113
0.406	54.5873
0.4	54.3645
