Name: Vermiculite (Mg,Fe^2+,Al)_3(Al,Si)_4O_10(OH)_2.4H_2O
Type: Mineral
Class: Silicates
Subclass: Phyllosilicates
Particle Size: 45-125um
Sample No.: PS-18B
Owner: JPL
Wavelength Range: VNIR-SWIR
Origin: USA, Montana, Lincoln County, Libby
Measurement: Hemispherical reflectance
X Units: Wavelength (micrometers)
Y Units: Reflectance (percent)
wavelength	value
0.4	9.57
0.403	9.98
0.406	10.15
0.409	10.15
0.412	10.26
0.415	10.21
0.418	10.61
0.421	10.61
0.424	11.12
0.427	11.46
0.43	11.98
0.433	12.43
0.436	12.71
0.439	13.35
0.442	13.57
0.445	14.08
0.448	14.43
0.451	14.48
0.454	15
0.457	15.06
0.46	15.29
0.463	15.52
0.466	15.4
0.469	15.69
0.472	15.58
0.475	15.86
0.478	16.04
0.481	16.26
0.484	16.77
0.487	16.83
0.49	17.35
0.493	17.58
0.496	18.27
0.499	18.72
0.502	19.17
0.505	19.81
0.508	20.15
0.511	20.83
0.514	21.06
0.517	21.86
0.52	22.15
0.523	22.66
0.526	22.89
0.529	23.35
0.532	23.75
0.535	23.92
0.538	24.43
0.541	24.37
0.544	24.83
0.547	24.83
0.55	25.35
0.553	25.46
0.556	25.63
0.559	25.63
0.562	26.2
0.565	26.26
0.568	26.49
0.571	26.6
0.574	26.6
0.577	26.95
0.58	26.83
0.583	27.18
0.586	27.29
0.589	27.4
0.592	27.74
0.595	27.57
0.598	27.91
0.601	27.97
0.604	28.26
0.607	28.43
0.61	28.49
0.613	28.77
0.616	28.66
0.619	28.95
0.622	28.99
0.625	29.05
0.628	29.45
0.631	29.28
0.634	29.63
0.637	29.51
0.64	29.86
0.643	29.74
0.646	29.91
0.649	29.97
0.652	30.03
0.655	30.31
0.658	30.08
0.661	30.43
0.664	30.31
0.667	30.43
0.67	30.54
0.673	30.54
0.676	30.54
0.679	30.49
0.682	30.88
0.685	30.54
0.688	30.76
0.691	30.6
0.694	30.71
0.697	30.65
0.7	30.6
0.703	30.94
0.706	30.71
0.709	30.88
0.712	30.88
0.715	30.99
0.718	31.11
0.721	31.17
0.724	31.34
0.727	31.22
0.73	31.63
0.733	31.45
0.736	31.68
0.739	31.63
0.742	31.91
0.745	31.97
0.748	32.09
0.751	32.36
0.754	32.09
0.757	32.48
0.76	32.48
0.763	32.65
0.766	32.99
0.769	32.99
0.772	33.4
0.775	33.34
0.778	33.45
0.781	33.45
0.784	33.57
0.787	33.91
0.79	33.8
0.793	34.13
0.796	34.13
0.799	34.99
0.808	35.34
0.82	35.62
0.832	35.67
0.844	35.79
0.856	35.79
0.868	35.73
0.88	35.62
0.892	35.51
0.904	35.57
0.916	35.57
0.928	35.62
0.94	35.73
0.952	35.79
0.964	35.9
0.976	36.13
0.988	36.19
1	36.36
1.012	36.42
1.024	36.54
1.036	36.71
1.048	36.65
1.06	36.77
1.072	36.94
1.084	36.88
1.096	37.17
1.108	37.22
1.12	37.39
1.132	37.62
1.144	37.85
1.156	38.08
1.168	38.52
1.18	38.62
1.192	39.07
1.204	39.52
1.216	39.75
1.228	40.32
1.24	40.77
1.252	41.23
1.264	41.61
1.276	42.12
1.288	42.73
1.3	43.13
1.312	43.69
1.324	44.07
1.336	44.58
1.348	45.02
1.36	45.42
1.372	44.67
1.384	44.57
1.396	43.59
1.408	43.43
1.42	43.27
1.432	43.74
1.444	44.61
1.456	45.18
1.468	45.98
1.48	46.94
1.492	47.58
1.504	48.54
1.516	49.28
1.528	49.91
1.54	50.36
1.552	50.93
1.564	51.39
1.576	51.9
1.588	52.3
1.6	52.59
1.612	53.09
1.624	53.41
1.636	53.63
1.648	54.13
1.66	54.45
1.672	54.85
1.684	55.06
1.696	55.45
1.708	55.78
1.72	55.94
1.732	56.12
1.744	56.23
1.756	56.29
1.768	56.35
1.78	56.52
1.792	56.69
1.804	56.9
1.816	57.01
1.828	57.18
1.84	57.13
1.852	56.91
1.864	55.93
1.876	53.37
1.888	48.83
1.9	42.71
1.912	37.95
1.924	37.26
1.936	38.27
1.948	39.62
1.96	40.95
1.972	42.28
1.984	43.71
1.996	45.42
2.008	46.85
2.02	48.2
2.032	49.43
2.044	50.46
2.056	51.26
2.068	52.15
2.08	52.76
2.092	53.47
2.104	54.07
2.116	54.67
2.128	55
2.14	55.36
2.152	55.84
2.164	55.88
2.176	56.15
2.188	55.97
2.2	55.88
2.212	55.9
2.224	55.49
2.236	55.07
2.248	53.92
2.26	52.47
2.272	49.93
2.284	46.74
2.296	43.91
2.308	42.56
2.32	42.12
2.332	42.52
2.344	43.14
2.356	42.81
2.368	41.82
2.38	40.71
2.392	39.84
2.404	39.45
2.416	39
2.428	38.59
2.44	37.87
2.452	37.2
2.464	36.36
2.476	35.63
2.488	35.02
2.5	34.23
