Name: Scorodite Fe^3+AsO_4.2H_2O
Type: Mineral
Class: Arsenates
Particle Size: 0-45um
Sample No.: A-2A
Owner: JPL
Origin: USA, Utah, Tooele County, Gold Hill.
Measurement: Hemispherical reflectance
X Units: Wavelength (micrometers)
Y Units: Reflectance (percent)
wavelength	value
2.5	32.6313
2.494	33.7408
2.488	35.3598
2.482	36.5731
2.476	37.8054
2.47	38.7931
2.464	39.9665
2.458	40.7634
2.452	41.3672
2.446	42.1701
2.44	42.6071
2.434	43.154
2.428	43.7706
2.422	44.2513
2.416	44.7496
2.41	45.3674
2.404	45.7366
2.398	46.2138
2.392	46.6592
2.386	47.1457
2.38	47.5134
2.374	47.8373
2.368	48.097
2.362	48.2859
2.356	48.4146
2.35	48.3482
2.344	48.2995
2.338	48.1537
2.332	48.0485
2.326	48.0546
2.32	48.3622
2.314	48.8343
2.308	49.4853
2.302	50.0831
2.296	50.6846
2.29	51.1485
2.284	51.3888
2.278	51.4684
2.272	51.635
2.266	51.6008
2.26	51.5868
2.254	51.6467
2.248	51.639
2.242	51.5668
2.236	51.4299
2.23	51.1722
2.224	50.9715
2.218	50.7366
2.212	50.5372
2.206	50.2031
2.2	50.1021
2.194	49.7977
2.188	49.6545
2.182	49.3832
2.176	49.1391
2.17	48.9516
2.164	48.8158
2.158	48.6472
2.152	48.5077
2.146	48.303
2.14	48.1336
2.134	47.8337
2.128	47.5402
2.122	47.071
2.116	46.8595
2.11	46.6409
2.104	46.3549
2.098	46.1413
2.092	46.1806
2.086	46.2623
2.08	46.3367
2.074	46.3488
2.068	46.4938
2.062	46.5086
2.056	46.7251
2.05	46.8256
2.044	46.9322
2.038	47.0137
2.032	47.0376
2.026	46.8667
2.02	46.5108
2.014	45.8505
2.008	45.0292
2.002	44.268
1.996	43.7934
1.99	43.7347
1.984	43.7425
1.978	43.4628
1.972	42.9093
1.966	42.3987
1.96	42.4303
1.954	43.4247
1.948	45.1249
1.942	46.8935
1.936	48.5712
1.93	49.9511
1.924	51.1852
1.918	52.3055
1.912	52.9749
1.906	53.7062
1.9	54.2462
1.894	54.6809
1.888	54.9091
1.882	55.1463
1.876	55.2709
1.87	55.5354
1.864	55.6656
1.858	55.6663
1.852	55.7306
1.846	55.7043
1.84	55.8086
1.834	55.8532
1.828	55.7739
1.822	55.8759
1.816	55.9025
1.81	56.0279
1.804	56.1111
1.798	56.2524
1.792	56.3466
1.786	56.3365
1.78	56.5235
1.774	56.6592
1.768	56.8184
1.762	56.9696
1.756	57.1051
1.75	57.2763
1.744	57.4788
1.738	57.6532
1.732	57.87
1.726	58.0339
1.72	58.2556
1.714	58.4009
1.708	58.6238
1.702	58.9345
1.696	59.3212
1.69	59.604
1.684	59.985
1.678	60.4236
1.672	60.8141
1.666	61.3664
1.66	61.696
1.654	62.2261
1.648	62.7702
1.642	63.1752
1.636	63.6542
1.63	64.2029
1.624	64.6922
1.618	65.2027
1.612	65.6173
1.606	66.1296
1.6	66.5321
1.594	67.1326
1.588	67.5713
1.582	68.0508
1.576	68.424
1.57	68.8023
1.564	69.169
1.558	69.498
1.552	69.611
1.546	69.5581
1.54	69.3213
1.534	69.0879
1.528	69.1817
1.522	69.6073
1.516	69.9611
1.51	70.1703
1.504	70.3242
1.498	70.3139
1.492	70.2338
1.486	69.8876
1.48	69.464
1.474	68.7544
1.468	67.3799
1.462	65.7448
1.456	65.3725
1.45	66.3986
1.444	68.2993
1.438	70.1775
1.432	71.7937
1.426	72.8076
1.42	73.6451
1.414	74.3176
1.408	74.8121
1.402	75.2503
1.396	75.6001
1.39	75.8203
1.384	75.9565
1.378	75.9603
1.372	75.9364
1.366	76.0734
1.36	76.2073
1.354	76.34
1.348	76.2387
1.342	76.4899
1.336	76.4399
1.33	76.3906
1.324	76.3643
1.318	76.4039
1.312	76.3226
1.306	76.3973
1.3	76.364
1.294	76.3264
1.288	76.3001
1.282	76.3839
1.276	76.2636
1.27	76.2666
1.264	76.2063
1.258	76.0868
1.252	76.0928
1.246	76.022
1.24	75.9143
1.234	75.8214
1.228	75.7007
1.222	75.6358
1.216	75.5023
1.21	75.4306
1.204	75.2342
1.198	75.0784
1.192	74.9879
1.186	74.9761
1.18	74.9477
1.174	74.9916
1.168	74.9086
1.162	74.8507
1.156	74.7929
1.15	74.7501
1.144	74.7069
1.138	74.6206
1.132	74.5064
1.126	74.4601
1.12	74.3848
1.114	74.2963
1.108	74.3037
1.102	74.1641
1.096	74.1558
1.09	74.1725
1.084	73.9361
1.078	73.9574
1.072	73.9126
1.066	73.7601
1.06	73.7619
1.054	73.6985
1.048	73.6538
1.042	73.4956
1.036	73.3859
1.03	73.2911
1.024	73.2499
1.018	73.1505
1.012	72.9642
1.006	72.8784
1	72.6497
0.994	72.5395
0.988	72.4234
0.982	72.3961
0.976	72.2616
0.97	72.2529
0.964	72.1
0.958	71.9393
0.952	71.8548
0.946	71.7083
0.94	71.5199
0.934	71.3464
0.928	71.1707
0.922	71.0181
0.916	70.8506
0.91	70.6514
0.904	70.4858
0.898	70.3056
0.892	70.0971
0.886	69.9374
0.88	69.8158
0.874	69.6714
0.868	69.4796
0.862	69.3514
0.856	69.1777
0.85	69.1105
0.844	69.0341
0.838	68.9424
0.832	68.8716
0.826	68.7892
0.82	68.7121
0.814	68.6814
0.808	68.7168
0.802	68.697
0.796	68.6937
0.79	68.7242
0.784	68.7992
0.778	68.895
0.772	68.9075
0.766	68.9747
0.76	69.0864
0.754	69.1894
0.748	69.2478
0.742	69.3197
0.736	69.3835
0.73	69.4058
0.724	69.408
0.718	69.3278
0.712	69.2451
0.706	69.1114
0.7	68.9237
0.694	68.6482
0.688	68.3543
0.682	67.9893
0.676	67.5543
0.67	67.0289
0.664	66.4571
0.658	65.8001
0.652	65.1201
0.646	64.3819
0.64	63.614
0.634	62.8013
0.628	61.9729
0.622	61.154
0.616	60.3633
0.61	59.594
0.604	58.8743
0.598	58.2171
0.592	57.6435
0.586	57.1022
0.58	56.6163
0.574	56.2032
0.568	55.8356
0.562	55.5201
0.556	55.3505
0.55	55.1561
0.544	54.9862
0.538	54.8243
0.532	54.576
0.526	54.2412
0.52	53.7614
0.514	53.0834
0.508	52.0748
0.502	50.6915
0.496	48.8269
0.49	46.4921
0.484	44.0232
0.478	41.7307
0.472	39.9947
0.466	38.7545
0.46	37.8272
0.454	36.9848
0.448	35.4113
0.442	32.2702
0.436	26.4257
0.43	25.9504
0.424	25.7654
0.418	25.6648
0.412	25.078
0.406	24.1622
0.4	22.7655
