Name: Cookeite LiAl_4(Si_3Al)O_10(OH)_8
Type: Mineral
Class: Silicates
Subclass: Phyllosilicates
Particle Size: 125-500um
Sample No.: PS-9A
Owner: JPL
Wavelength Range: VNIR-SWIR
Origin: USA, Arkansas, Pulaski County
Measurement: Hemispherical reflectance
X Units: Wavelength (micrometers)
Y Units: Reflectance (percent)
wavelength	value
0.4	31.61
0.403	32.36
0.406	32.76
0.409	33.33
0.412	33.58
0.415	34.28
0.418	34.79
0.421	35.13
0.424	35.83
0.427	36.37
0.43	36.97
0.433	37.65
0.436	38.42
0.439	39
0.442	39.56
0.445	40.17
0.448	40.59
0.451	40.85
0.454	41.17
0.457	41.39
0.46	41.57
0.463	41.94
0.466	42.13
0.469	42.22
0.472	42.54
0.475	42.73
0.478	43.02
0.481	43.38
0.484	43.62
0.487	44.07
0.49	44.29
0.493	44.94
0.496	45.41
0.499	45.77
0.502	46.15
0.505	46.67
0.508	47.19
0.511	47.65
0.514	48.2
0.517	48.76
0.52	49.11
0.523	49.55
0.526	49.97
0.529	50.37
0.532	50.77
0.535	51.28
0.538	51.7
0.541	51.77
0.544	52.13
0.547	52.41
0.55	52.73
0.553	53.11
0.556	53.44
0.559	53.55
0.562	53.85
0.565	54.23
0.568	54.28
0.571	54.18
0.574	54.49
0.577	54.37
0.58	54.51
0.583	54.67
0.586	54.84
0.589	54.81
0.592	54.84
0.595	55.14
0.598	55.17
0.601	55.28
0.604	55.27
0.607	55.34
0.61	55.38
0.613	55.21
0.616	55.5
0.619	55.55
0.622	55.56
0.625	55.6
0.628	55.67
0.631	55.83
0.634	55.69
0.637	55.98
0.64	56.07
0.643	55.98
0.646	56.06
0.649	56.15
0.652	56.37
0.655	56.3
0.658	56.57
0.661	56.68
0.664	56.77
0.667	56.81
0.67	56.94
0.673	57.07
0.676	56.94
0.679	57.18
0.682	57.31
0.685	57.31
0.688	57.42
0.691	57.4
0.694	57.63
0.697	57.56
0.7	57.61
0.703	57.75
0.706	57.74
0.709	57.93
0.712	58.02
0.715	58
0.718	58.04
0.721	58.34
0.724	58.07
0.727	58.03
0.73	58.15
0.733	58.31
0.736	58.24
0.739	58.26
0.742	58.26
0.745	58.4
0.748	58.16
0.751	58.11
0.754	58.33
0.757	58.36
0.76	58.28
0.763	58.21
0.766	58.3
0.769	58.36
0.772	58.14
0.775	58.24
0.778	58.18
0.781	58.16
0.784	58.11
0.787	58.09
0.79	58.14
0.793	57.98
0.796	57.96
0.799	58.1
0.808	58.34
0.82	58.17
0.832	58.14
0.844	58.12
0.856	58.19
0.868	58.24
0.88	58.17
0.892	58.33
0.904	58.3
0.916	58.21
0.928	58.34
0.94	58.16
0.952	57.67
0.964	58.05
0.976	58.37
0.988	58.54
1	58.63
1.012	58.83
1.024	58.94
1.036	59.06
1.048	59.26
1.06	59.39
1.072	59.55
1.084	59.78
1.096	59.79
1.108	59.95
1.12	60.2
1.132	60.31
1.144	60.31
1.156	60.52
1.168	60.53
1.18	60.62
1.192	60.69
1.204	60.7
1.216	60.66
1.228	60.5
1.24	60.54
1.252	60.49
1.264	60.33
1.276	60.1
1.288	59.91
1.3	59.43
1.312	59.07
1.324	58.84
1.336	58.94
1.348	58.73
1.36	57.56
1.372	55.33
1.384	45.37
1.396	38.3
1.408	42.27
1.42	47.19
1.432	47.98
1.444	49.87
1.456	49.75
1.468	49.74
1.48	50.48
1.492	51.87
1.504	53.16
1.516	53.97
1.528	53.6
1.54	52.76
1.552	51.67
1.564	50.49
1.576	49.83
1.588	49.78
1.6	50.22
1.612	51.04
1.624	51.98
1.636	53.03
1.648	53.97
1.66	54.81
1.672	55.71
1.684	56.39
1.696	56.96
1.708	57.44
1.72	57.8
1.732	57.89
1.744	57.85
1.756	57.65
1.768	57.18
1.78	56.51
1.792	55.65
1.804	54.46
1.816	53.22
1.828	52.48
1.84	52.95
1.852	54.48
1.864	55.09
1.876	54.52
1.888	52.97
1.9	51.17
1.912	50.75
1.924	51.13
1.936	51.27
1.948	50.8
1.96	49.7
1.972	48.35
1.984	46.77
1.996	45.42
2.008	44.6
2.02	44.46
2.032	44.84
2.044	45.75
2.056	46.65
2.068	46.99
2.08	47.01
2.092	46.96
2.104	46.93
2.116	46.62
2.128	45.57
2.14	41.76
2.152	35.05
2.164	28.59
2.176	25.6
2.188	25.51
2.2	25.56
2.212	25.88
2.224	27.65
2.236	28.95
2.248	29.64
2.26	30.7
2.272	31.67
2.284	31.68
2.296	30.19
2.308	27.68
2.32	25.66
2.332	23.44
2.344	21.18
2.356	19.95
2.368	20.38
2.38	21.96
2.392	23.03
2.404	23.74
2.416	23.64
2.428	23.31
2.44	22.99
2.452	22.84
2.464	22.73
2.476	22.44
2.488	22.2
2.5	22.25
