Name: Anhydrite CaSO_4
Type: Mineral
Class: Sulfates
Particle Size: 0-45um
Sample No.: SO-1A
Owner: JPL
Wavelength Range: VNIR-SWIR
Origin: Canada, Nova Scotia
Measurement: Hemispherical reflectance
X Units: Wavelength (micrometers)
Y Units: Reflectance (percent)
wavelength	value
0.4	79.59
0.403	79.79
0.406	80.03
0.409	80.2
0.412	80.28
0.415	80.46
0.418	80.51
0.421	80.66
0.424	80.81
0.427	81.04
0.43	81.19
0.433	81.18
0.436	81.44
0.439	81.46
0.442	81.78
0.445	81.81
0.448	81.82
0.451	81.92
0.454	81.98
0.457	82.13
0.46	82.26
0.463	82.28
0.466	82.48
0.469	82.55
0.472	82.63
0.475	82.77
0.478	82.71
0.481	82.82
0.484	82.9
0.487	83.1
0.49	82.99
0.493	83.12
0.496	83.18
0.499	83.18
0.502	83.26
0.505	83.44
0.508	83.55
0.511	83.42
0.514	83.45
0.517	83.45
0.52	83.64
0.523	83.71
0.526	83.66
0.529	83.69
0.532	83.66
0.535	83.67
0.538	83.81
0.541	83.77
0.544	83.65
0.547	83.71
0.55	83.74
0.553	83.77
0.556	83.77
0.559	83.78
0.562	84.21
0.565	84.32
0.568	84.14
0.571	84.08
0.574	84.06
0.577	84.06
0.58	84.02
0.583	83.85
0.586	83.99
0.589	84.02
0.592	84.08
0.595	84.09
0.598	84.02
0.601	84.16
0.604	84.16
0.607	84.4
0.61	84.33
0.613	84.36
0.616	84.3
0.619	84.28
0.622	84.47
0.625	84.44
0.628	84.53
0.631	84.41
0.634	84.52
0.637	84.72
0.64	84.76
0.643	84.75
0.646	84.77
0.649	84.9
0.652	85.11
0.655	85.16
0.658	85.16
0.661	85.19
0.664	85.28
0.667	85.39
0.67	85.45
0.673	85.59
0.676	85.6
0.679	85.68
0.682	85.74
0.685	85.73
0.688	85.84
0.691	85.92
0.694	86.03
0.697	86.06
0.7	86.17
0.703	86.26
0.706	86.35
0.709	86.32
0.712	86.44
0.715	86.56
0.718	86.64
0.721	86.67
0.724	86.78
0.727	86.89
0.73	86.9
0.733	87
0.736	87.06
0.739	87.17
0.742	87.19
0.745	87.19
0.748	87.24
0.751	87.42
0.754	87.59
0.757	87.52
0.76	87.54
0.763	87.66
0.766	87.7
0.769	87.67
0.772	87.72
0.775	87.7
0.778	87.72
0.781	88.01
0.784	87.89
0.787	88.01
0.79	87.96
0.793	88.06
0.796	88.06
0.799	88.16
0.808	88.2
0.82	88.35
0.832	88.41
0.844	88.5
0.856	88.67
0.868	88.67
0.88	88.67
0.892	88.66
0.904	88.65
0.916	88.71
0.928	88.71
0.94	88.72
0.952	88.77
0.964	88.84
0.976	88.9
0.988	88.83
1	88.86
1.012	88.89
1.024	88.96
1.036	88.95
1.048	89.02
1.06	88.98
1.072	89.16
1.084	89.18
1.096	89.27
1.108	89.28
1.12	89.26
1.132	89.32
1.144	89.23
1.156	89.33
1.168	89.2
1.18	89.22
1.192	89.15
1.204	89.17
1.216	89.23
1.228	89.2
1.24	89.37
1.252	89.45
1.264	89.53
1.276	89.53
1.288	89.56
1.3	89.51
1.312	89.44
1.324	89.45
1.336	89.38
1.348	89.21
1.36	89.26
1.372	89.02
1.384	88.94
1.396	88.67
1.408	88.15
1.42	87.61
1.432	86.94
1.444	86.03
1.456	86.81
1.468	87.14
1.48	87.24
1.492	87.29
1.504	87.87
1.516	88.25
1.528	88.13
1.54	88.19
1.552	88.55
1.564	88.83
1.576	88.98
1.588	89.15
1.6	89.4
1.612	89.44
1.624	89.47
1.636	89.56
1.648	89.66
1.66	89.75
1.672	89.96
1.684	89.77
1.696	89.76
1.708	89.62
1.72	89.24
1.732	88.76
1.744	88.38
1.756	88.48
1.768	88.48
1.78	88.64
1.792	88.89
1.804	89.08
1.816	89.07
1.828	89.05
1.84	89.11
1.852	88.82
1.864	88.28
1.876	87.21
1.888	85.64
1.9	83.52
1.912	80.84
1.924	77.8
1.936	75.22
1.948	75.76
1.96	77.78
1.972	79.1
1.984	80.74
1.996	82.98
2.008	84.84
2.02	85.99
2.032	86.55
2.044	86.83
2.056	87.04
2.068	87.1
2.08	87.31
2.092	87.25
2.104	87.3
2.116	87.22
2.128	87.04
2.14	86.83
2.152	86.38
2.164	86.08
2.176	85.7
2.188	85.51
2.2	85.23
2.212	85.03
2.224	85.35
2.236	85.64
2.248	85.7
2.26	85.69
2.272	85.92
2.284	86.02
2.296	86.08
2.308	86.09
2.32	86.03
2.332	85.83
2.344	85.52
2.356	84.87
2.368	84.14
2.38	83.16
2.392	81.89
2.404	80.64
2.416	79.62
2.428	78.95
2.44	78.53
2.452	78.15
2.464	77.68
2.476	77.52
2.488	77.74
2.5	78.22
