Name: Cryolite Na_3AlF_6
Type: Mineral
Class: Halides
Particle Size: 45-125um
Sample No.: H-1A
Owner: JPL
Origin: Denmark, Greenland, Ivigtut
Measurement: Hemispherical reflectance
X Units: Wavelength (micrometers)
Y Units: Reflectance (percent)
wavelength	value
15.385	34.9217
15.116	34.7169
14.856	28.7257
14.605	19.9889
14.362	12.6367
14.128	7.6019
13.9	4.5537
13.68	2.6029
13.467	1.3694
13.26	0.7914
13.06	0.5173
12.866	0.2146
12.677	0.1929
12.494	0.102
12.316	0.0318
12.143	0.0353
11.974	0.1163
11.811	0.5526
11.651	0.6613
11.496	0.8551
11.345	1.0766
11.198	1.071
11.055	1.1008
10.915	1.08
10.779	1.1593
10.647	1.3574
10.517	0.9061
10.39	0.65
10.267	0.568
10.146	0.6536
10.029	0.8565
9.914	1.052
9.801	1.7265
9.691	2.2029
9.584	2.8585
9.479	3.3228
9.376	3.928
9.275	5.9798
9.177	10.1107
9.08	15.0542
8.986	16.7019
8.893	12.9634
8.803	10.8587
8.714	12.1932
8.627	16.3189
8.542	21.3035
8.458	23.328
8.376	24.5657
8.296	25.5864
8.217	27.8089
8.139	33.4651
8.063	40.2107
7.989	45.1785
7.916	48.7498
7.844	50.8385
7.773	52.1156
7.704	52.966
7.636	53.5903
7.569	54.0025
7.503	54.1882
7.439	53.7024
7.375	52.8253
7.313	52.6789
7.252	53.1031
7.191	54.1009
7.132	55.2155
7.073	56.2733
7.016	57.8803
6.96	60.5186
6.904	61.1359
6.849	62.9486
6.795	65.1312
6.742	65.5213
6.69	67.3159
6.639	70.5572
6.588	68.5877
6.538	67.7585
6.489	71.009
6.441	68.5752
6.393	67.6744
6.346	68.1123
6.3	66.14
6.254	64.5823
6.209	64.1509
6.165	65.9172
6.121	67.7686
6.078	68.9502
6.036	68.3164
5.994	69.8765
5.953	71.4758
5.912	73.8188
5.872	76.1266
5.832	77.5591
5.793	77.7916
5.755	79.4508
5.716	80.9247
5.679	80.9833
5.642	82.4906
5.605	81.4701
5.569	81.7527
5.533	82.0007
5.498	82.5184
5.463	83.9184
5.429	84.0849
5.395	84.1133
5.362	84.6898
5.329	84.7432
5.296	85.1939
5.264	85.0829
5.232	85.2858
5.2	85.3874
5.169	85.3398
5.139	85.5538
5.108	85.7156
5.078	85.9023
5.049	85.9946
5.019	86.0322
4.99	86.0419
4.962	86.0798
4.933	86.174
4.905	86.179
4.878	86.106
4.85	86.1213
4.823	86.2019
4.796	86.2654
4.77	86.3435
4.744	86.4186
4.718	86.4139
4.692	86.1981
4.667	85.9132
4.642	85.6853
4.617	85.7693
4.592	86.0712
4.568	86.6217
4.544	87.0483
4.52	87.4896
4.497	87.6635
4.474	87.8024
4.45	87.9528
4.428	88.0594
4.405	88.1126
4.383	88.1747
4.361	88.3326
4.339	88.3504
4.317	88.2021
4.296	87.4737
4.274	83.4531
4.253	85.6453
4.233	88.2895
4.212	88.9228
4.191	89.1744
4.171	89.4791
4.151	89.7166
4.131	89.8874
4.112	89.9154
4.092	90.0583
4.073	89.973
4.054	90.0462
4.035	90.1157
4.016	90.1143
3.998	90.2414
3.979	90.3123
3.961	90.2704
3.943	90.3526
3.925	90.3125
3.907	90.4147
3.89	90.5535
3.872	90.4732
3.855	90.4234
3.838	90.5395
3.821	90.3742
3.804	90.5054
3.787	90.4681
3.771	90.4384
3.754	90.4249
3.738	90.2735
3.722	90.1854
3.706	89.8852
3.69	89.6914
3.675	89.7913
3.659	89.6908
3.644	89.5913
3.628	89.4249
3.613	89.3328
3.598	89.0093
3.583	88.3074
3.568	87.8377
3.554	87.8127
3.539	87.8137
3.525	87.4841
3.51	86.5275
3.496	85.7554
3.482	85.9615
3.468	85.6188
3.454	85.5345
3.441	84.9155
3.427	83.7231
3.413	82.8612
3.4	83.1612
3.387	83.2549
3.373	82.4668
3.36	82.7417
3.347	82.9706
3.334	82.8826
3.321	82.6393
3.309	82.1095
3.296	81.6696
3.284	80.9866
3.271	80.5415
3.259	79.9184
3.247	79.2313
3.234	78.5676
3.222	77.8928
3.21	77.1359
3.199	76.3706
3.187	75.6607
3.175	74.8692
3.163	74.1552
3.152	73.4457
3.14	72.7608
3.129	71.8979
3.118	71.1387
3.107	70.7069
3.095	70.1436
3.084	69.7325
3.073	69.4098
3.063	68.8265
3.052	68.5024
3.041	68.1328
3.03	67.8116
3.02	67.4313
3.009	66.9876
2.999	66.7794
2.988	66.5981
2.978	66.157
2.968	65.9069
2.958	65.7499
2.948	65.5806
2.938	65.3928
2.928	65.1891
2.918	65.1821
2.908	65.0849
2.898	65.3951
2.888	65.597
2.879	65.8679
2.869	66.0619
2.86	66.6317
2.85	66.9198
2.841	67.2339
2.832	67.6848
2.822	68.8213
2.813	69.5876
2.804	71.0974
2.795	71.2359
2.786	72.8634
2.777	73.2994
2.768	74.7004
2.759	75.3359
2.751	76.6832
2.742	79.453
2.733	79.9349
2.725	83.2514
2.716	83.0904
2.707	84.4466
2.699	85.1062
2.691	86.1313
2.682	87.102
2.674	88.0396
2.666	90.7313
2.658	88.4761
2.649	88.6282
2.641	89.2404
2.633	89.8782
2.625	89.9362
2.617	91.2601
2.609	90.2218
2.602	90.3509
2.594	92.4836
2.586	90.8385
2.578	90.599
2.571	91.0411
2.563	91.7808
2.555	90.4998
2.548	90.7547
2.54	90.557
2.533	90.826
2.525	90.743
2.518	90.6258
2.511	90.7243
2.504	90.5742
2.496	90.6333
2.489	90.461
2.482	90.0999
2.475	89.6971
2.468	89.9332
2.461	90.0962
2.454	90.3538
2.447	90.3582
2.44	90.4662
2.433	90.6752
2.426	90.5588
2.419	90.4647
2.413	90.3811
2.406	90.271
2.399	90.4584
2.393	90.5488
2.386	90.637
2.379	90.7486
2.373	90.9741
2.366	91.1649
2.36	91.1739
2.354	91.5063
2.347	91.5111
2.341	91.8819
2.334	91.993
2.328	92.3787
2.322	92.6558
2.316	92.8959
2.309	92.5895
2.303	92.5746
2.297	92.752
2.291	93.0401
2.285	93.0941
2.279	93.0184
2.273	93.135
2.267	93.0822
2.261	93.1618
2.255	93.1222
2.249	93.045
2.244	93.0802
2.238	92.8663
2.232	92.9498
2.226	92.8488
2.22	93.0279
2.215	93.0206
2.209	93.0897
2.204	93.1613
2.198	93.1284
2.192	93.1312
2.187	93.1503
2.181	93.0434
2.176	93.1441
2.17	92.9285
2.165	93.1678
2.159	93.0206
2.154	93.297
2.149	93.2855
2.143	93.147
2.138	93.2502
2.133	93.3314
2.128	93.2955
2.122	93.3829
2.117	93.418
2.112	93.3593
2.107	93.3032
2.102	93.2
2.097	93.1563
2.091	93.2406
2.086	93.2471
2.081	93.6143
2.076	93.1444
2.071	93.3309
2.066	93.5095
2.062	93.1922
2.057	93.0951
2.052	93.3368
2.047	92.988
2.042	93.2162
2.037	93.1654
2.032	93.0419
2.028	93.1399
2.023	92.9536
2.018	93.0796
2.014	93.1946
2.009	93.0003
2.004	93.2199
