Name: Fayalite Fe_2SiO_4
Type: Mineral
Class: Silicates
Subclass: Nesosilicates
Particle Size: 125-500um
Sample No.: NS-1A
Owner: JPL
Origin: None.
Measurement: Hemispherical reflectance
X Units: Wavelength (micrometers)
Y Units: Reflectance (percent)
wavelength	value
2.5	7.03853
2.494	6.74725
2.488	6.99796
2.482	7.02345
2.476	7.11245
2.47	7.11718
2.464	7.24305
2.458	7.07125
2.452	7.27012
2.446	7.16673
2.44	7.28053
2.434	7.2388
2.428	7.306
2.422	7.3513
2.416	7.23763
2.41	7.38329
2.404	7.39383
2.398	7.5231
2.392	7.49349
2.386	7.53087
2.38	7.5538
2.374	7.55557
2.368	7.5747
2.362	7.5886
2.356	7.53945
2.35	7.57159
2.344	7.60684
2.338	7.64295
2.332	7.65895
2.326	7.69599
2.32	7.67837
2.314	7.76292
2.308	7.88383
2.302	7.87791
2.296	7.99717
2.29	7.99801
2.284	7.99974
2.278	8.02789
2.272	8.15207
2.266	8.12146
2.26	8.22966
2.254	8.30254
2.248	8.32752
2.242	8.36642
2.236	8.36291
2.23	8.38202
2.224	8.46992
2.218	8.57457
2.212	8.56633
2.206	8.58705
2.2	8.61745
2.194	8.62694
2.188	8.7089
2.182	8.73076
2.176	8.71081
2.17	8.8067
2.164	8.74204
2.158	8.80047
2.152	8.79841
2.146	8.93072
2.14	8.91166
2.134	8.86685
2.128	8.83711
2.122	8.89182
2.116	8.84232
2.11	8.85618
2.104	8.83898
2.098	8.85975
2.092	8.87937
2.086	8.86617
2.08	8.90586
2.074	8.90442
2.068	8.86965
2.062	8.92539
2.056	8.90955
2.05	8.92395
2.044	8.97893
2.038	8.96072
2.032	8.97291
2.026	8.90866
2.02	8.95664
2.014	8.97902
2.008	8.92026
2.002	8.9387
1.996	8.93424
1.99	8.93123
1.984	8.95376
1.978	8.96411
1.972	8.9394
1.966	8.9333
1.96	8.94218
1.954	8.89381
1.948	8.94466
1.942	8.95832
1.936	8.90065
1.93	8.89779
1.924	8.87572
1.918	8.96927
1.912	8.96937
1.906	8.88218
1.9	8.93945
1.894	8.9799
1.888	9.00385
1.882	9.02797
1.876	9.05318
1.87	9.03726
1.864	9.03597
1.858	8.97758
1.852	9.02963
1.846	9.00262
1.84	9.01565
1.834	8.99604
1.828	8.95883
1.822	8.90225
1.816	8.93322
1.81	8.88128
1.804	8.85059
1.798	8.8865
1.792	8.84682
1.786	8.81861
1.78	8.76799
1.774	8.7724
1.768	8.69372
1.762	8.7613
1.756	8.62475
1.75	8.66095
1.744	8.64483
1.738	8.53801
1.732	8.56014
1.726	8.51468
1.72	8.45695
1.714	8.44344
1.708	8.37629
1.702	8.30884
1.696	8.30159
1.69	8.27494
1.684	8.17948
1.678	8.15226
1.672	8.08824
1.666	8.08227
1.66	8.08752
1.654	7.96927
1.648	7.9437
1.642	7.92528
1.636	7.74161
1.63	7.73577
1.624	7.64679
1.618	7.61047
1.612	7.53399
1.606	7.48404
1.6	7.40623
1.594	7.4375
1.588	7.29655
1.582	7.26963
1.576	7.25844
1.57	7.20282
1.564	7.13131
1.558	7.04339
1.552	6.95145
1.546	6.94972
1.54	6.84907
1.534	6.85023
1.528	6.77977
1.522	6.71774
1.516	6.66312
1.51	6.63935
1.504	6.59139
1.498	6.55881
1.492	6.42528
1.486	6.41296
1.48	6.37745
1.474	6.29904
1.468	6.28934
1.462	6.22654
1.456	6.14962
1.45	6.14905
1.444	6.13516
1.438	6.00836
1.432	5.99712
1.426	5.92784
1.42	5.86239
1.414	5.58381
1.408	5.87885
1.402	5.87881
1.396	5.79888
1.39	5.7888
1.384	5.77633
1.378	5.68447
1.372	5.65467
1.366	5.61898
1.36	5.65126
1.354	5.5969
1.348	5.40897
1.342	5.46275
1.336	5.45276
1.33	5.45625
1.324	5.36705
1.318	5.33782
1.312	5.29155
1.306	5.32863
1.3	5.28554
1.294	5.25542
1.288	5.25973
1.282	5.21702
1.276	5.18217
1.27	5.19701
1.264	5.15679
1.258	5.07356
1.252	5.10244
1.246	5.06676
1.24	4.99641
1.234	4.97579
1.228	4.96296
1.222	4.95161
1.216	4.93862
1.21	4.90972
1.204	4.9492
1.198	4.83143
1.192	4.88745
1.186	4.86181
1.18	4.84515
1.174	4.76295
1.168	4.79749
1.162	4.77674
1.156	4.6933
1.15	4.72967
1.144	4.62516
1.138	4.60602
1.132	4.57121
1.126	4.56433
1.12	4.40092
1.114	4.41078
1.108	4.33828
1.102	4.26867
1.096	4.24923
1.09	4.14583
1.084	4.05222
1.078	3.95547
1.072	3.95288
1.066	3.91294
1.06	3.84694
1.054	3.78175
1.048	3.81909
1.042	3.76763
1.036	3.76941
1.03	3.73765
1.024	3.73474
1.018	3.64761
1.012	3.67292
1.006	3.67145
1	3.73598
0.994	3.6447
0.988	3.67048
0.982	3.74327
0.976	3.7815
0.97	3.71767
0.964	3.80229
0.958	3.82042
0.952	3.86951
0.946	3.89575
0.94	3.97534
0.934	3.92918
0.928	4.02755
0.922	4.10931
0.916	4.15814
0.91	4.20958
0.904	4.34772
0.898	4.34067
0.892	4.45025
0.886	4.51281
0.88	4.60255
0.874	4.66511
0.868	4.78288
0.862	4.87197
0.856	5.30598
0.85	5.4156
0.844	5.51823
0.838	5.62338
0.832	5.72303
0.826	5.81551
0.82	5.92637
0.814	6.01769
0.808	6.10837
0.802	6.19231
0.796	6.2722
0.79	6.34935
0.784	6.42096
0.778	6.49241
0.772	6.55506
0.766	6.61035
0.76	6.66889
0.754	6.71608
0.748	6.76006
0.742	6.79952
0.736	6.83606
0.73	6.86493
0.724	6.889
0.718	6.9114
0.712	6.93584
0.706	6.95357
0.7	6.97588
0.694	6.99471
0.688	7.01306
0.682	7.02992
0.676	7.04281
0.67	7.05812
0.664	7.07102
0.658	7.08019
0.652	7.08769
0.646	7.09224
0.64	7.09449
0.634	7.09186
0.628	7.0963
0.622	7.09961
0.616	7.11305
0.61	7.13456
0.604	7.15006
0.598	7.17007
0.592	7.1793
0.586	7.17438
0.58	7.15792
0.574	7.12166
0.568	7.05666
0.562	6.92274
0.556	6.72229
0.55	6.70667
0.544	6.70673
0.538	6.62573
0.532	6.485
0.526	6.32966
0.52	6.15089
0.514	5.93371
0.508	5.92019
0.502	5.90989
0.496	5.80861
0.49	5.67355
0.484	5.58524
0.478	5.52956
0.472	5.51849
0.466	5.49935
0.46	5.459
0.454	5.41516
0.448	5.3777
0.442	5.32615
0.436	5.28468
0.43	5.23098
0.424	5.16019
0.418	5.09668
0.412	5.04037
0.406	4.97497
0.4	4.9007
