Name: Columbite Fe^2+Nb_2O_6
Type: Mineral
Class: Oxides
Particle Size: 125-500um
Sample No.: O-7A
Owner: JPL
Wavelength Range: VNIR-SWIR
Origin: USA, South Dakota, Pennington County, Keystone
Measurement: Hemispherical reflectance
X Units: Wavelength (micrometers)
Y Units: Reflectance (percent)
wavelength	value
0.4	5.95
0.403	5.91
0.406	5.83
0.409	5.9
0.412	5.84
0.415	5.78
0.418	5.72
0.421	5.78
0.424	5.76
0.427	5.65
0.43	5.72
0.433	5.71
0.436	5.65
0.439	5.65
0.442	5.75
0.445	5.63
0.448	5.57
0.451	5.59
0.454	5.51
0.457	5.56
0.46	5.56
0.463	5.45
0.466	5.45
0.469	5.4
0.472	5.4
0.475	5.45
0.478	5.39
0.481	5.43
0.484	5.33
0.487	5.36
0.49	5.41
0.493	5.39
0.496	5.37
0.499	5.35
0.502	5.45
0.505	5.33
0.508	5.44
0.511	5.37
0.514	5.33
0.517	5.32
0.52	5.3
0.523	5.41
0.526	5.34
0.529	5.29
0.532	5.25
0.535	5.37
0.538	5.31
0.541	5.37
0.544	5.3
0.547	5.27
0.55	5.12
0.553	5.21
0.556	5.38
0.559	5.21
0.562	5.3
0.565	5.34
0.568	5.24
0.571	5.24
0.574	5.14
0.577	5.28
0.58	5.23
0.583	5.18
0.586	5.11
0.589	5.12
0.592	5.24
0.595	5.23
0.598	5.27
0.601	5.18
0.604	5.19
0.607	5.17
0.61	5.27
0.613	5.26
0.616	5.15
0.619	5.1
0.622	5.15
0.625	5.21
0.628	5.26
0.631	5.16
0.634	5.21
0.637	5.16
0.64	5.15
0.643	5.23
0.646	5.15
0.649	5.15
0.652	5.09
0.655	5.23
0.658	5.22
0.661	5.2
0.664	5.15
0.667	5.15
0.67	5.27
0.673	5.26
0.676	5.21
0.679	5.14
0.682	5.21
0.685	5.14
0.688	5.19
0.691	5.25
0.694	5.16
0.697	5.15
0.7	5.16
0.703	5.24
0.706	5.37
0.709	5.36
0.712	5.21
0.715	5.2
0.718	5.2
0.721	5.25
0.724	5.27
0.727	5.31
0.73	5.31
0.733	5.27
0.736	5.36
0.739	5.37
0.742	5.32
0.745	5.31
0.748	5.37
0.751	5.31
0.754	5.32
0.757	5.37
0.76	5.48
0.763	5.48
0.766	5.47
0.769	5.36
0.772	5.53
0.775	5.54
0.778	5.52
0.781	5.52
0.784	5.46
0.787	5.51
0.79	5.35
0.793	5.34
0.796	5.3
0.799	5.21
0.808	5.5
0.82	5.55
0.832	5.57
0.844	5.58
0.856	5.65
0.868	5.59
0.88	5.59
0.892	5.59
0.904	5.6
0.916	5.54
0.928	5.54
0.94	5.53
0.952	5.54
0.964	5.53
0.976	5.53
0.988	5.53
1	5.57
1.012	5.55
1.024	5.66
1.036	5.61
1.048	5.64
1.06	5.54
1.072	5.5
1.084	5.58
1.096	5.55
1.108	5.54
1.12	5.44
1.132	5.43
1.144	5.5
1.156	5.39
1.168	5.43
1.18	5.43
1.192	5.45
1.204	5.5
1.216	5.49
1.228	5.44
1.24	5.41
1.252	5.44
1.264	5.47
1.276	5.5
1.288	5.46
1.3	5.53
1.312	5.51
1.324	5.51
1.336	5.47
1.348	5.43
1.36	5.42
1.372	5.44
1.384	5.49
1.396	5.46
1.408	5.46
1.42	5.42
1.432	5.52
1.444	5.57
1.456	5.53
1.468	5.59
1.48	5.48
1.492	5.54
1.504	5.49
1.516	5.55
1.528	5.49
1.54	5.51
1.552	5.57
1.564	5.63
1.576	5.58
1.588	5.58
1.6	5.55
1.612	5.65
1.624	5.58
1.636	5.62
1.648	5.64
1.66	5.57
1.672	5.57
1.684	5.53
1.696	5.56
1.708	5.54
1.72	5.57
1.732	5.62
1.744	5.61
1.756	5.66
1.768	5.67
1.78	5.73
1.792	5.8
1.804	5.76
1.816	5.87
1.828	5.88
1.84	5.84
1.852	5.87
1.864	5.87
1.876	5.98
1.888	6
1.9	6
1.912	6.05
1.924	6.01
1.936	6.14
1.948	6.13
1.96	6.27
1.972	6.31
1.984	6.38
1.996	6.5
2.008	6.51
2.02	6.58
2.032	6.73
2.044	6.79
2.056	6.8
2.068	6.88
2.08	6.94
2.092	7.07
2.104	7.14
2.116	7.16
2.128	7.29
2.14	7.36
2.152	7.47
2.164	7.5
2.176	7.57
2.188	7.61
2.2	7.7
2.212	7.71
2.224	7.79
2.236	7.86
2.248	7.78
2.26	7.95
2.272	8.01
2.284	8.06
2.296	8.06
2.308	8.03
2.32	8.26
2.332	8.33
2.344	8.38
2.356	8.41
2.368	8.48
2.38	8.54
2.392	8.58
2.404	8.67
2.416	8.71
2.428	8.76
2.44	8.8
2.452	8.81
2.464	8.87
2.476	8.91
2.488	8.96
2.5	9.07
