Name: Atacamite Cu_2Cl(OH)_3
Type: Mineral
Class: Halides
Particle Size: 125-500um
Sample No.: H-4A
Owner: JPL
Wavelength Range: VNIR-SWIR
Origin: Chile, Atacama, Copiapo
Measurement: Hemispherical reflectance
X Units: Wavelength (micrometers)
Y Units: Reflectance (percent)
wavelength	value
0.4	7.16
0.403	7.56
0.406	7.9
0.409	8.07
0.412	8.36
0.415	8.55
0.418	8.79
0.421	9.13
0.424	9.31
0.427	9.61
0.43	9.94
0.433	10.14
0.436	10.36
0.439	10.58
0.442	10.89
0.445	11.19
0.448	11.37
0.451	11.75
0.454	11.85
0.457	12.05
0.46	12.17
0.463	12.43
0.466	12.67
0.469	12.99
0.472	13.15
0.475	13.46
0.478	13.7
0.481	13.97
0.484	14.24
0.487	14.66
0.49	14.82
0.493	15
0.496	15.11
0.499	15.24
0.502	15.38
0.505	15.52
0.508	15.66
0.511	15.74
0.514	15.74
0.517	15.75
0.52	15.71
0.523	15.56
0.526	15.29
0.529	15.27
0.532	15.01
0.535	14.81
0.538	14.48
0.541	14.23
0.544	13.88
0.547	13.64
0.55	13.24
0.553	12.73
0.556	12.27
0.559	11.81
0.562	11.35
0.565	10.88
0.568	10.43
0.571	9.95
0.574	9.52
0.577	9.03
0.58	8.48
0.583	8.35
0.586	7.82
0.589	7.34
0.592	6.95
0.595	6.63
0.598	6.31
0.601	5.97
0.604	5.75
0.607	5.68
0.61	5.16
0.613	5.08
0.616	4.74
0.619	4.68
0.622	4.4
0.625	4.16
0.628	4.11
0.631	4.06
0.634	3.89
0.637	3.83
0.64	3.65
0.643	3.54
0.646	3.55
0.649	3.3
0.652	3.31
0.655	3.25
0.658	3.15
0.661	3.07
0.664	3.08
0.667	3.02
0.67	2.8
0.673	2.79
0.676	2.74
0.679	2.73
0.682	2.74
0.685	2.79
0.688	2.73
0.691	2.73
0.694	2.74
0.697	2.79
0.7	2.66
0.703	2.73
0.706	2.61
0.709	2.5
0.712	2.56
0.715	2.68
0.718	2.67
0.721	2.55
0.724	2.68
0.727	2.56
0.73	2.56
0.733	2.56
0.736	2.56
0.739	2.62
0.742	2.67
0.745	2.5
0.748	2.4
0.751	2.33
0.754	2.34
0.757	2.45
0.76	2.39
0.763	2.34
0.766	2.45
0.769	2.45
0.772	2.39
0.775	2.45
0.778	2.45
0.781	2.45
0.784	2.49
0.787	2.44
0.79	2.49
0.793	2.49
0.796	2.71
0.799	2.8
0.808	2.76
0.82	2.89
0.832	2.94
0.844	3.02
0.856	3.02
0.868	3.15
0.88	3.2
0.892	3.38
0.904	3.5
0.916	3.69
0.928	3.8
0.94	4.09
0.952	4.34
0.964	4.57
0.976	4.81
0.988	5.16
1	5.46
1.012	5.83
1.024	6.29
1.036	6.67
1.048	7.12
1.06	7.54
1.072	7.93
1.084	8.42
1.096	8.84
1.108	9.32
1.12	9.71
1.132	10.22
1.144	10.59
1.156	11.04
1.168	11.54
1.18	12.05
1.192	12.44
1.204	13.04
1.216	13.53
1.228	14.04
1.24	14.66
1.252	15.15
1.264	15.68
1.276	16.2
1.288	16.78
1.3	17.35
1.312	17.74
1.324	18.26
1.336	18.69
1.348	19.14
1.36	19.39
1.372	19.61
1.384	19.31
1.396	17.98
1.408	14.91
1.42	16.51
1.432	17.79
1.444	18.5
1.456	18.7
1.468	18.52
1.48	20.4
1.492	20.97
1.504	22.21
1.516	23.32
1.528	24.02
1.54	24.84
1.552	24.62
1.564	26.11
1.576	27.17
1.588	27.64
1.6	28.37
1.612	29.29
1.624	29.92
1.636	30.58
1.648	31.27
1.66	31.7
1.672	31.54
1.684	31.02
1.696	31.71
1.708	32.53
1.72	32.69
1.732	32.95
1.744	33.64
1.756	33.66
1.768	34.03
1.78	34.52
1.792	34.6
1.804	34.74
1.816	35.01
1.828	35.2
1.84	33.59
1.852	31.37
1.864	30.96
1.876	27.21
1.888	21.07
1.9	15.64
1.912	13.69
1.924	13.8
1.936	14.22
1.948	14.67
1.96	15.25
1.972	15.42
1.984	15.9
1.996	18
2.008	20.88
2.02	22.92
2.032	24.44
2.044	25.69
2.056	26.29
2.068	26.77
2.08	27.03
2.092	27.19
2.104	27.37
2.116	27.52
2.128	26.69
2.14	24.41
2.152	22.11
2.164	22.62
2.176	23.7
2.188	23.48
2.2	22.99
2.212	22.46
2.224	21.28
2.236	18.77
2.248	16.29
2.26	15.2
2.272	15.19
2.284	15.17
2.296	14.9
2.308	14.33
2.32	14
2.332	13.68
2.344	13.72
2.356	13.91
2.368	13.66
2.38	13.45
2.392	13.16
2.404	13.1
2.416	13.1
2.428	12.64
2.44	11.48
2.452	9.95
2.464	9.15
2.476	9.22
2.488	9.8
2.5	10.01
