Name: Barite BaSO_4
Type: Mineral
Class: Sulfates
Particle Size: 0-45um
Sample No.: SO-3A
Owner: JPL
Origin: USA, South Carolina, Cherokee County, Kings Creek.
Measurement: Hemispherical reflectance
X Units: Wavelength (micrometers)
Y Units: Reflectance (percent)
wavelength	value
2.5	89.2809
2.494	89.1232
2.488	88.8846
2.482	89.0315
2.476	88.805
2.47	89.1212
2.464	89.3597
2.458	89.2884
2.452	89.5325
2.446	89.7138
2.44	89.7182
2.434	89.6762
2.428	89.8422
2.422	90.0016
2.416	90.285
2.41	90.1941
2.404	90.3984
2.398	90.6081
2.392	90.6597
2.386	90.6857
2.38	90.8612
2.374	91.0261
2.368	91.2468
2.362	91.2093
2.356	91.4011
2.35	91.4597
2.344	91.5398
2.338	91.4803
2.332	91.5473
2.326	91.4522
2.32	91.4686
2.314	91.4156
2.308	91.4968
2.302	91.53
2.296	91.5163
2.29	91.5036
2.284	91.4272
2.278	91.4951
2.272	91.4763
2.266	91.5033
2.26	91.5021
2.254	91.4988
2.248	91.5696
2.242	91.521
2.236	91.6091
2.23	91.6713
2.224	91.7002
2.218	91.6799
2.212	91.8922
2.206	92.0584
2.2	92.0603
2.194	92.1822
2.188	92.3248
2.182	92.3463
2.176	92.4687
2.17	92.6046
2.164	92.8834
2.158	92.9777
2.152	93.04
2.146	93.2343
2.14	93.1078
2.134	93.0692
2.128	92.8673
2.122	92.5958
2.116	92.3129
2.11	92.0481
2.104	91.7716
2.098	91.5319
2.092	91.6087
2.086	91.5945
2.08	91.7778
2.074	91.8439
2.068	91.8815
2.062	91.9556
2.056	92.0211
2.05	92.0901
2.044	92.1442
2.038	92.1391
2.032	92.1554
2.026	92.1219
2.02	92.12
2.014	92.1204
2.008	92.0469
2.002	91.9756
1.996	91.9562
1.99	91.7752
1.984	91.6683
1.978	91.6031
1.972	91.442
1.966	91.3285
1.96	91.3114
1.954	91.2772
1.948	91.2034
1.942	91.1777
1.936	91.3018
1.93	91.1911
1.924	91.3887
1.918	91.4831
1.912	91.7382
1.906	91.991
1.9	92.1955
1.894	92.3684
1.888	92.6269
1.882	92.7535
1.876	92.8928
1.87	93.0577
1.864	93.1361
1.858	93.1181
1.852	93.1654
1.846	93.1899
1.84	93.2519
1.834	93.2188
1.828	93.336
1.822	93.2721
1.816	93.3203
1.81	93.3241
1.804	93.299
1.798	93.4203
1.792	93.3835
1.786	93.3214
1.78	93.3244
1.774	93.2593
1.768	93.2676
1.762	93.3544
1.756	93.378
1.75	93.3554
1.744	93.4149
1.738	93.4455
1.732	93.4413
1.726	93.5056
1.72	93.474
1.714	93.5112
1.708	93.5341
1.702	93.4438
1.696	93.4896
1.69	93.4236
1.684	93.4851
1.678	93.3845
1.672	93.4577
1.666	93.5182
1.66	93.6124
1.654	93.5024
1.648	93.5624
1.642	93.4897
1.636	93.5783
1.63	93.5707
1.624	93.5183
1.618	93.5576
1.612	93.5277
1.606	93.5101
1.6	93.5239
1.594	93.5778
1.588	93.5495
1.582	93.5357
1.576	93.3638
1.57	93.5039
1.564	93.4764
1.558	93.5105
1.552	93.4854
1.546	93.4331
1.54	93.4342
1.534	93.4177
1.528	93.4495
1.522	93.4185
1.516	93.3822
1.51	93.3096
1.504	93.3732
1.498	93.3192
1.492	93.4028
1.486	93.268
1.48	93.2182
1.474	93.1851
1.468	93.2107
1.462	93.2349
1.456	93.1887
1.45	93.1789
1.444	93.2447
1.438	93.215
1.432	93.2324
1.426	93.1834
1.42	93.2275
1.414	93.2102
1.408	93.1677
1.402	93.3005
1.396	93.3874
1.39	93.4964
1.384	93.4745
1.378	93.4851
1.372	93.5562
1.366	93.4817
1.36	93.523
1.354	93.4319
1.348	93.3372
1.342	93.4183
1.336	93.3959
1.33	93.4868
1.324	93.4521
1.318	93.4425
1.312	93.326
1.306	93.3273
1.3	93.4726
1.294	93.4457
1.288	93.4177
1.282	93.3907
1.276	93.418
1.27	93.3708
1.264	93.3471
1.258	93.3538
1.252	93.2794
1.246	93.3709
1.24	93.4283
1.234	93.355
1.228	93.3645
1.222	93.3479
1.216	93.3213
1.21	93.3064
1.204	93.3412
1.198	93.2613
1.192	93.3465
1.186	93.3213
1.18	93.3381
1.174	93.2691
1.168	93.2554
1.162	93.4184
1.156	93.2987
1.15	93.2784
1.144	93.3047
1.138	93.3594
1.132	93.3112
1.126	93.3854
1.12	93.2845
1.114	93.3272
1.108	93.3291
1.102	93.3784
1.096	93.352
1.09	93.3311
1.084	93.4104
1.078	93.2729
1.072	93.3083
1.066	93.3473
1.06	93.3616
1.054	93.33
1.048	93.293
1.042	93.3608
1.036	93.512
1.03	93.3057
1.024	93.4552
1.018	93.3916
1.012	93.2493
1.006	93.3587
1	93.2628
0.994	93.2653
0.988	93.3704
0.982	93.3634
0.976	93.3249
0.97	93.3932
0.964	93.4115
0.958	93.3715
0.952	93.4016
0.946	93.3714
0.94	93.3979
0.934	93.3426
0.928	93.3609
0.922	93.408
0.916	93.392
0.91	93.4202
0.904	93.414
0.898	93.4206
0.892	93.4394
0.886	93.3392
0.88	93.3629
0.874	93.3407
0.868	93.364
0.862	93.32
0.856	93.2685
0.85	93.4243
0.844	93.4377
0.838	93.4297
0.832	93.4281
0.826	93.4143
0.82	93.4828
0.814	93.4645
0.808	93.4675
0.802	93.4369
0.796	93.3968
0.79	93.3831
0.784	93.3416
0.778	93.344
0.772	93.2534
0.766	93.176
0.76	93.1515
0.754	93.0962
0.748	93.0518
0.742	93.065
0.736	93.0141
0.73	92.9553
0.724	92.929
0.718	92.879
0.712	92.8154
0.706	92.7741
0.7	92.7336
0.694	92.7194
0.688	92.6786
0.682	92.7031
0.676	92.6705
0.67	92.6643
0.664	92.6055
0.658	92.5827
0.652	92.5751
0.646	92.5159
0.64	92.4757
0.634	92.4473
0.628	92.4354
0.622	92.3782
0.616	92.339
0.61	92.3127
0.604	92.2775
0.598	92.2984
0.592	92.3028
0.586	92.2514
0.58	92.2427
0.574	92.1732
0.568	92.1036
0.562	92.0484
0.556	91.9688
0.55	91.8727
0.544	91.7788
0.538	91.6642
0.532	91.5448
0.526	91.4336
0.52	91.3005
0.514	91.1719
0.508	91.031
0.502	90.9032
0.496	90.7371
0.49	90.5894
0.484	90.4545
0.478	90.3249
0.472	90.2193
0.466	90.0914
0.46	89.9495
0.454	89.8451
0.448	89.6884
0.442	89.5148
0.436	89.3052
0.43	89.0637
0.424	88.8302
0.418	88.6099
0.412	88.396
0.406	88.1686
0.4	87.885
