Name: Aphthitalite (K,Na)_3Na(SO_4)_2
Type: Mineral
Class: Sulfates
Particle Size: 0-45um
Sample No.: SO-9A
Owner: JPL
Wavelength Range: VNIR-SWIR
Origin: USA, California, San Bernadino County, Searles Lake
Measurement: Hemispherical reflectance
X Units: Wavelength (micrometers)
Y Units: Reflectance (percent)
wavelength	value
0.4	83.18
0.403	83.48
0.406	83.74
0.409	83.92
0.412	84.04
0.415	84.18
0.418	84.4
0.421	84.66
0.424	84.77
0.427	85.04
0.43	85.15
0.433	85.37
0.436	85.56
0.439	85.8
0.442	86.04
0.445	86.12
0.448	86.42
0.451	86.54
0.454	86.79
0.457	86.82
0.46	87.11
0.463	87.22
0.466	87.52
0.469	87.65
0.472	87.94
0.475	88.01
0.478	88.21
0.481	88.34
0.484	88.47
0.487	88.59
0.49	88.74
0.493	88.78
0.496	88.85
0.499	89.17
0.502	89.24
0.505	89.42
0.508	89.37
0.511	89.67
0.514	89.85
0.517	89.98
0.52	90.16
0.523	90.16
0.526	90.32
0.529	90.3
0.532	90.36
0.535	90.49
0.538	90.54
0.541	90.47
0.544	90.66
0.547	90.67
0.55	90.86
0.553	90.75
0.556	90.95
0.559	90.96
0.562	91.36
0.565	91.36
0.568	91.48
0.571	91.37
0.574	91.38
0.577	91.28
0.58	91.34
0.583	91.27
0.586	91.27
0.589	91.39
0.592	91.58
0.595	91.57
0.598	91.47
0.601	91.57
0.604	91.82
0.607	91.84
0.61	91.9
0.613	91.9
0.616	91.84
0.619	91.78
0.622	91.9
0.625	91.95
0.628	91.94
0.631	91.89
0.634	91.89
0.637	92
0.64	92
0.643	92.05
0.646	92.12
0.649	92
0.652	92.18
0.655	92.23
0.658	92.17
0.661	92.18
0.664	92.18
0.667	92.23
0.67	92.35
0.673	92.35
0.676	92.23
0.679	92.23
0.682	92.35
0.685	92.41
0.688	92.41
0.691	92.35
0.694	92.46
0.697	92.4
0.7	92.44
0.703	92.47
0.706	92.41
0.709	92.64
0.712	92.58
0.715	92.53
0.718	92.53
0.721	92.58
0.724	92.53
0.727	92.58
0.73	92.64
0.733	92.7
0.736	92.47
0.739	92.7
0.742	92.64
0.745	92.65
0.748	92.64
0.751	92.64
0.754	92.53
0.757	92.7
0.76	92.7
0.763	92.7
0.766	92.59
0.769	92.58
0.772	92.76
0.775	92.7
0.778	92.64
0.781	92.59
0.784	92.82
0.787	92.7
0.79	92.76
0.793	92.76
0.796	92.81
0.799	92.81
0.808	92.89
0.82	92.89
0.832	92.96
0.844	93.07
0.856	93.19
0.868	93.25
0.88	93.13
0.892	93.19
0.904	93.19
0.916	93.13
0.928	93.19
0.94	93.25
0.952	93.19
0.964	93.31
0.976	93.25
0.988	93.31
1	93.26
1.012	93.25
1.024	93.31
1.036	93.31
1.048	93.31
1.06	93.31
1.072	93.38
1.084	93.39
1.096	93.45
1.108	93.39
1.12	93.44
1.132	93.44
1.144	93.37
1.156	93.3
1.168	93.21
1.18	93.13
1.192	93.17
1.204	93.33
1.216	93.1
1.228	93.1
1.24	93.17
1.252	93.11
1.264	93.2
1.276	93.25
1.288	93.33
1.3	93.26
1.312	93.24
1.324	93.09
1.336	93.01
1.348	93
1.36	93.03
1.372	92.99
1.384	92.93
1.396	92.88
1.408	92.61
1.42	92.33
1.432	92.18
1.444	92.1
1.456	91.88
1.468	91.7
1.48	91.53
1.492	91.64
1.504	91.69
1.516	91.69
1.528	91.65
1.54	91.82
1.552	91.87
1.564	92.05
1.576	92.05
1.588	91.98
1.6	91.87
1.612	91.86
1.624	91.83
1.636	91.75
1.648	91.73
1.66	91.59
1.672	91.62
1.684	91.43
1.696	91.42
1.708	91.29
1.72	91.17
1.732	91.01
1.744	91.06
1.756	90.88
1.768	90.78
1.78	90.77
1.792	90.88
1.804	90.86
1.816	90.77
1.828	90.63
1.84	90.58
1.852	90.42
1.864	90.22
1.876	89.68
1.888	88.82
1.9	87.51
1.912	86.35
1.924	85.27
1.936	84.78
1.948	84.89
1.96	85.35
1.972	85.87
1.984	86.28
1.996	86.51
2.008	86.64
2.02	86.68
2.032	86.7
2.044	86.76
2.056	86.87
2.068	87.09
2.08	87.38
2.092	87.54
2.104	87.92
2.116	88.13
2.128	88.18
2.14	88.15
2.152	88.03
2.164	88.06
2.176	88.01
2.188	87.91
2.2	87.85
2.212	87.69
2.224	87.72
2.236	87.83
2.248	87.69
2.26	87.55
2.272	87.6
2.284	87.48
2.296	87.27
2.308	87.17
2.32	87.36
2.332	87.33
2.344	87.32
2.356	87.12
2.368	86.72
2.38	86.32
2.392	85.73
2.404	85.58
2.416	85.5
2.428	85.37
2.44	85.25
2.452	85
2.464	84.88
2.476	84.79
2.488	84.94
2.5	85.29
