Name: Red Sandstone
Type: Rock
Class: Sedimentary
Subclass: Sandstone
Particle Size: Solid surface
Sample No.: Ward59.txt
Owner: JPL
Origin: Ward's Collection of American Rocks.  Sample locality - Potsdam, St. Lawrence County, New York.
Description: A fine-grained, red quartz sandstone.  Bedding planes are
Measurement: Hemispherical reflectance
X Units: Wavelength (micrometers)
Y Units: Reflectance (percent)
wavelength	value
15.3871	3.4069
15.118	3.99445
14.8581	4.14958
14.6069	4.4526
14.3642	4.52328
14.1293	3.7387
13.9021	4.19688
13.682	4.93057
13.4687	5.58062
13.2621	6.12345
13.0616	7.42415
12.8672	12.0193
12.6784	9.25003
12.4951	11.0205
12.317	2.05282
12.1439	2.45202
11.9757	3.31319
11.812	4.13146
11.6527	4.82035
11.4977	5.13052
11.3468	5.38996
11.1997	5.83991
11.0564	6.20143
10.9168	6.47005
10.7806	6.77979
10.6478	7.12274
10.5182	7.57865
10.3917	8.24058
10.2683	9.06374
10.1477	10.028
10.0299	10.7319
9.9148	11.8618
9.8024	13.4902
9.6925	15.4699
9.585	18.1531
9.4798	22.5362
9.377	33.4566
9.2763	42.1149
9.1778	43.343
9.0814	42.9082
8.987	42.4031
8.8945	41.5834
8.8039	39.5231
8.7151	36.688
8.6281	27.095
8.5428	38.1969
8.4592	40.306
8.3772	41.2885
8.2967	42.4634
8.2179	42.2792
8.1404	35.6076
8.0645	24.3041
7.9899	16.1451
7.9167	9.75975
7.8449	5.83975
7.7743	4.15607
7.705	2.67601
7.6369	1.76947
7.57	1.15943
7.5043	1.02473
7.4397	0.92753
7.3762	0.90079
7.3138	0.85456
7.2524	0.90629
7.1921	0.94752
7.1327	0.98117
7.0743	1.10353
7.0169	1.08359
6.9604	1.20881
6.9047	1.31376
6.85	1.21663
6.7962	1.28677
6.7431	1.33829
6.6909	1.35741
6.6395	1.57281
6.5889	1.63959
6.539	1.78318
6.49	1.92933
6.4416	1.91537
6.3939	1.89095
6.347	1.83864
6.3007	1.60947
6.2551	1.85408
6.2101	1.68045
6.1658	1.82398
6.1222	1.96866
6.0791	1.91303
6.0366	2.08274
5.9948	2.01991
5.9535	1.72847
5.9127	1.87075
5.8726	1.98564
5.8329	2.25908
5.7938	2.45131
5.7552	2.78052
5.7172	2.96027
5.6796	2.87892
5.6425	2.58925
5.6059	2.49945
5.5698	2.52675
5.5341	2.51955
5.4989	2.79355
5.4641	2.93912
5.4298	2.9873
5.3959	2.77714
5.3624	2.7382
5.3294	2.80255
5.2967	2.69361
5.2644	2.81608
5.2326	3.03111
5.2011	3.42275
5.17	3.59882
5.1392	3.41281
5.1088	3.50967
5.0788	3.38085
5.0491	3.3692
5.0198	3.43727
4.9908	3.55677
4.9622	3.77182
4.9338	4.12067
4.9058	4.82172
4.8781	6.62487
4.8508	8.43506
4.8237	9.78611
4.7969	10.9666
4.7704	12.0519
4.7443	13.0303
4.7184	13.3276
4.6927	11.6053
4.6674	12.1437
4.6423	14.5048
4.6175	16.623
4.593	17.4558
4.5687	17.6006
4.5447	16.3609
4.5209	13.6091
4.4974	11.0005
4.4741	10.3357
4.451	10.8787
4.4282	11.7534
4.4057	12.9319
4.3833	14.8643
4.3612	16.9439
4.3393	18.488
4.3176	18.6384
4.2962	17.8538
4.2749	18.0377
4.2539	19.5848
4.233	19.004
4.2124	19.6848
4.192	20.5512
4.1717	21.5111
4.1517	22.3472
4.1319	23.1717
4.1122	24.4184
4.0927	25.7888
4.0734	26.7823
4.0543	27.1822
4.0354	26.8426
4.0166	26.7941
3.9981	26.6697
3.9796	27.154
3.9614	28.2835
3.9433	29.1838
3.9254	30.0146
3.9077	30.0382
3.8901	29.4963
3.8726	28.7974
3.8554	28.4406
3.8382	28.7234
3.8213	29.2242
3.8045	29.5621
3.7878	29.4606
3.7713	28.9683
3.7549	28.2918
3.7386	28.1252
3.7225	28.324
3.7066	29.2667
3.6907	30.3249
3.675	31.1192
3.6595	31.8083
3.644	31.9908
3.6287	31.9212
3.6136	31.6088
3.5985	31.6858
3.5836	31.4376
3.5688	31.3191
3.5541	31.2853
3.5396	31.0095
3.5251	30.7896
3.5108	29.8783
3.4966	29.3171
3.4825	28.9966
3.4685	28.7334
3.4547	28.4049
3.4409	27.5735
3.4273	26.6085
3.4137	25.4443
3.4003	25.4123
3.387	24.8527
3.3738	24.1741
3.3606	23.9507
3.3476	23.5422
3.3347	23.3514
3.3219	22.7789
3.3092	22.2532
3.2965	21.4212
3.284	20.6593
3.2716	20.1529
3.2593	19.6259
3.247	19.2189
3.2348	18.5976
3.2228	18.3813
3.2108	17.6281
3.1989	16.8709
3.1871	16.1987
3.1754	16.0717
3.1638	15.2922
3.1523	14.3106
3.1408	13.7901
3.1294	13.4152
3.1181	13.4622
3.1069	12.1357
3.0958	12.4662
3.0848	12.1182
3.0738	11.6706
3.0629	11.7108
3.0521	11.5791
3.0413	11.2329
3.0307	10.6715
3.0201	10.5846
3.0096	10.9116
2.9991	10.3984
2.9887	10.1525
2.9784	10.6003
2.9682	9.9374
2.9581	9.20858
2.948	10.1947
2.9379	9.93751
2.928	10.0254
2.9181	9.63678
2.9083	9.82945
2.8985	10.1916
2.8888	10.8841
2.8792	11.0465
2.8697	10.6566
2.8602	11.3179
2.8507	11.383
2.8413	12.0925
2.832	12.3649
2.8228	12.6096
2.8136	13.4894
2.8045	13.902
2.7954	12.409
2.7864	11.2233
2.7774	9.88939
2.7685	8.05625
2.7597	6.50005
2.7509	6.54465
2.7422	6.62806
2.7335	6.88818
2.7249	8.94578
2.7163	13.1034
2.7078	14.3994
2.6994	21.8726
2.691	28.3258
2.6826	34.1078
2.6743	36.7697
2.666	39.5384
2.6578	39.7911
2.6497	40.8044
2.6416	41.1725
2.6336	41.7649
2.6256	42.1247
2.6176	42.1878
2.6097	42.1472
2.6018	42.4036
2.594	44.1596
2.5863	42.9825
2.5785	42.9894
2.5709	43.6371
2.5633	44.1966
2.5557	44.1704
2.5481	43.9005
2.5406	44.4499
2.5332	44.4144
2.5258	44.0747
2.5184	43.7967
2.5111	43.733
2.5038	43.264
2.4966	43.1993
2.4894	43.5952
2.4823	43.4951
2.4752	43.3938
2.4681	43.1324
2.4611	43.1332
2.4541	42.8748
2.4471	42.5091
2.4402	42.8884
2.4333	42.6695
2.4265	42.9447
2.4197	43.8951
2.413	44.1373
2.4063	45.0803
2.3996	45.7812
2.3929	45.7739
2.3863	45.2996
2.3798	45.3935
2.3732	46.2074
2.3667	45.5368
2.3603	45.1953
2.3538	45.6545
2.3474	45.3049
2.3411	45.1889
2.3347	45.9731
2.3285	46.1328
2.3222	46.68
2.316	47.9808
2.3098	47.9237
2.3036	48.4008
2.2975	48.1606
2.2914	48.4284
2.2854	49.0015
2.2793	49.2002
2.2733	48.8279
2.2674	49.5184
2.2614	48.8715
2.2555	49.0752
2.2497	48.5983
2.2438	48.7489
2.238	48.2485
2.2322	47.477
2.2265	48.3452
2.2208	47.4226
2.2151	46.0584
2.2094	43.9459
2.2038	43.239
2.1982	42.0818
2.1926	42.0819
2.187	42.8901
2.1815	44.8929
2.176	46.6845
2.1706	46.8675
2.1651	47.8783
2.1597	48.7846
2.1543	49.036
2.149	48.4418
2.1436	49.3372
2.1383	49.1873
2.1331	49.8961
2.1278	49.2169
2.1226	48.6251
2.1174	49.9876
2.1122	49.7225
2.1071	49.8914
2.1019	48.5378
2.0968	49.6269
2.0918	49.526
2.0867	49.8084
2.0817	50.6347
2.0767	49.0655
2.0717	49.8491
2.0667	49.448
2.0618	49.1401
2.0569	48.8891
2.052	48.437
2.0472	48.402
2.0423	48.8697
2.0375	48.7464
2.0327	48.9314
2.028	46.1887
2.0232	47.8665
2.0185	48.695
2.0138	49.2999
2.0091	49.843
2.0044	49.3707
1.9998	48.0474
