Name: Stilbite NaCa_2Al_5Si_3O_36.14H_2O
Type: Mineral
Class: Silicates
Subclass: Tectosilicates
Particle Size: 45-125um
Sample No.: TS-9A
Owner: JPL
Origin: India
Measurement: Hemispherical reflectance
X Units: Wavelength (micrometers)
Y Units: Reflectance (percent)
wavelength	value
15.385	0.9836
15.116	1.3485
14.856	1.5034
14.605	1.503
14.362	1.4138
14.128	1.9011
13.9	1.8838
13.68	1.4791
13.467	1.522
13.26	1.6159
13.06	1.6302
12.866	1.7272
12.677	1.5353
12.494	1.8143
12.316	1.8374
12.143	2.436
11.974	2.6595
11.811	3.0152
11.651	3.2542
11.496	3.4495
11.345	3.8342
11.198	3.8788
11.055	4.1225
10.915	4.3757
10.779	4.8943
10.647	5.2061
10.517	5.9176
10.39	6.9247
10.267	8.1646
10.146	9.9802
10.029	11.4964
9.914	13.0251
9.801	14.7314
9.691	16.5176
9.584	18.0171
9.479	19.1922
9.376	19.875
9.275	17.1588
9.177	12.1918
9.08	8.5597
8.986	6.3997
8.893	5.6033
8.803	5.2759
8.714	5.2447
8.627	4.8804
8.542	4.4233
8.458	3.7177
8.376	3.319
8.296	2.4956
8.217	1.1902
8.139	0.2333
8.063	0.1532
7.989	0.0725
7.916	0.0456
7.844	0.2126
7.773	0.1752
7.704	0.2747
7.636	0.2868
7.569	0.3689
7.503	0.5861
7.439	0.5867
7.375	0.5651
7.313	0.6694
7.252	0.8338
7.191	0.9203
7.132	0.9522
7.073	0.9961
7.016	1.2854
6.96	1.3115
6.904	1.3389
6.849	1.3773
6.795	1.4498
6.742	1.5593
6.69	1.5761
6.639	1.5077
6.588	1.6603
6.538	1.6504
6.489	1.6763
6.441	1.6877
6.393	1.5989
6.346	1.5541
6.3	1.4747
6.254	1.5039
6.209	1.3265
6.165	1.3821
6.121	1.2118
6.078	0.9444
6.036	0.7627
5.994	0.8013
5.953	0.8009
5.912	0.8769
5.872	1.0301
5.832	1.3765
5.793	1.8033
5.755	2.0643
5.716	2.3586
5.679	2.5989
5.642	2.8171
5.605	2.892
5.569	3.0169
5.533	3.299
5.498	3.5861
5.463	3.8636
5.429	4.2094
5.395	4.5075
5.362	4.8196
5.329	4.9215
5.296	5.0503
5.264	5.2398
5.232	5.3993
5.2	5.6096
5.169	5.9386
5.139	6.2697
5.108	6.6492
5.078	6.947
5.049	7.1655
5.019	7.46
4.99	7.4785
4.962	7.6355
4.933	7.4003
4.905	7.2771
4.878	7.1325
4.85	6.942
4.823	6.7209
4.796	6.6581
4.77	6.3374
4.744	6.1736
4.718	5.9035
4.692	5.7911
4.667	5.5519
4.642	5.3708
4.617	5.3673
4.592	5.3505
4.568	5.2715
4.544	5.2678
4.52	5.2911
4.497	5.5755
4.474	5.5981
4.45	5.8102
4.428	5.9873
4.405	6.2675
4.383	6.6566
4.361	6.9676
4.339	7.4143
4.317	7.9826
4.296	8.4444
4.274	9.0528
4.253	10.1411
4.233	10.5925
4.212	11.7645
4.191	12.9896
4.171	14.0992
4.151	15.146
4.131	16.1001
4.112	16.9752
4.092	18.1473
4.073	19.0921
4.054	20.0504
4.035	21.1316
4.016	21.8876
3.998	22.771
3.979	23.4753
3.961	24.0498
3.943	24.5534
3.925	24.8047
3.907	24.9614
3.89	25.2046
3.872	25.2632
3.855	25.1885
3.838	25.0296
3.821	24.6792
3.804	24.4285
3.787	23.8196
3.771	23.4908
3.754	22.9539
3.738	22.3896
3.722	21.8509
3.706	21.0944
3.69	20.4744
3.675	19.6773
3.659	19.0548
3.644	18.285
3.628	17.3945
3.613	16.5431
3.598	15.8134
3.583	14.8601
3.568	14.165
3.554	13.4195
3.539	12.5629
3.525	11.7579
3.51	11.024
3.496	10.191
3.482	9.5683
3.468	8.689
3.454	8.0342
3.441	7.4333
3.427	6.7407
3.413	6.2355
3.4	5.8817
3.387	5.2717
3.373	4.8578
3.36	4.4603
3.347	4.1204
3.334	3.8818
3.321	3.634
3.309	3.3443
3.296	3.2632
3.284	2.8709
3.271	2.7963
3.259	2.6256
3.247	2.5122
3.234	2.3736
3.222	2.5443
3.21	2.3816
3.199	2.0985
3.187	2.0209
3.175	2.0724
3.163	1.9292
3.152	2.0186
3.14	1.8988
3.129	1.8972
3.118	1.7909
3.107	2.0265
3.095	1.8771
3.084	1.6407
3.073	1.6404
3.063	1.7653
3.052	1.7054
3.041	1.7095
3.03	1.6716
3.02	1.9109
3.009	1.7297
2.999	1.8113
2.988	1.6831
2.978	1.7848
2.968	1.5092
2.958	1.764
2.948	1.6663
2.938	1.6801
2.928	1.4209
2.918	1.8137
2.908	1.6957
2.898	1.7015
2.888	1.6111
2.879	1.7369
2.869	1.5422
2.86	1.4953
2.85	1.6363
2.841	1.5234
2.832	1.4296
2.822	1.5193
2.813	1.6243
2.804	1.4806
2.795	1.3997
2.786	1.4241
2.777	1.3644
2.768	1.1352
2.759	1.1738
2.751	1.2313
2.742	1.5379
2.733	1.1345
2.725	1.6874
2.716	1.8033
2.707	2.0719
2.699	2.538
2.691	2.8799
2.682	3.2554
2.674	3.9112
2.666	4.2538
2.658	4.6096
2.649	5.0604
2.641	5.5293
2.633	5.9443
2.625	6.2289
2.617	6.3432
2.609	6.8954
2.602	7.1667
2.594	7.0487
2.586	7.5736
2.578	7.8545
2.571	7.6956
2.563	8.1381
2.555	8.6696
2.548	8.7618
2.54	8.9079
2.533	9.5552
2.525	9.9588
2.518	10.2273
2.511	10.6751
2.504	11.2504
2.496	11.5815
2.489	11.8644
2.482	12.0452
2.475	12.5614
2.468	12.8976
2.461	13.2649
2.454	13.6925
2.447	13.8076
2.44	14.3949
2.433	15.2267
2.426	15.7754
2.419	16.7459
2.413	17.9428
2.406	19.1917
2.399	20.556
2.393	22.0911
2.386	23.9016
2.379	25.7982
2.373	27.8474
2.366	29.8646
2.36	31.6658
2.354	33.556
2.347	35.2886
2.341	36.7759
2.334	38.4909
2.328	39.6952
2.322	41.0398
2.316	42.1653
2.309	43.0077
2.303	44.0078
2.297	44.6483
2.291	45.5654
2.285	46.0853
2.279	46.8618
2.273	47.3658
2.267	47.76
2.261	48.3037
2.255	48.6467
2.249	48.7797
2.244	49.0678
2.238	49.2655
2.232	49.2808
2.226	49.4821
2.22	49.6813
2.215	49.6878
2.209	49.6979
2.204	49.7926
2.198	49.6329
2.192	49.6613
2.187	49.6914
2.181	49.6357
2.176	49.6194
2.17	49.6493
2.165	49.5515
2.159	49.265
2.154	49.5813
2.149	48.8867
2.143	48.8291
2.138	48.6178
2.133	48.3804
2.128	48.0125
2.122	47.7278
2.117	47.288
2.112	47.3678
2.107	46.9678
2.102	46.5846
2.097	46.079
2.091	45.7054
2.086	45.8368
2.081	44.7264
2.076	44.2353
2.071	44.7673
2.066	44.1811
2.062	43.9798
2.057	43.1592
2.052	42.8324
2.047	42.2395
2.042	41.5032
2.037	40.5724
2.032	40.0158
2.028	38.1566
2.023	37.2037
2.018	35.9516
2.014	34.6169
2.009	33.0645
2.004	31.7028
