Name: Ferroaxinite Ca_2Fe^2+Al_2BSi_4O_15(OH)
Type: Mineral
Class: Silicates
Subclass: Cyclosilicates
Particle Size: 125-500um
Sample No.: CS-4A
Owner: JPL
Origin: Mexico, Baja California Norte, Los Gavelontos
Measurement: Hemispherical reflectance
X Units: Wavelength (micrometers)
Y Units: Reflectance (percent)
wavelength	value
15.385	1.5904
15.116	2.7487
14.856	2.2492
14.605	1.3533
14.362	2.1879
14.128	2.5623
13.9	3.3544
13.68	3.4042
13.467	4.1053
13.26	4.6971
13.06	5.4399
12.866	6.0739
12.677	5.6288
12.494	6.4723
12.316	7.7388
12.143	9.0571
11.974	9.0939
11.811	11.6904
11.651	13.521
11.496	16.6644
11.345	19.7638
11.198	20.6177
11.055	13.6857
10.915	16.6712
10.779	19.9493
10.647	25.296
10.517	26.8444
10.39	16.2256
10.267	9.71
10.146	8.5336
10.029	8.3471
9.914	10.9186
9.801	6.6535
9.691	8.8562
9.584	16.5823
9.479	18.055
9.376	23.5578
9.275	23.3224
9.177	24.7781
9.08	23.5542
8.986	14.675
8.893	9.0327
8.803	6.3562
8.714	5.7737
8.627	2.576
8.542	0.9684
8.458	0.3332
8.376	0.159
8.296	0.2557
8.217	0.2031
8.139	0.3437
8.063	0.2594
7.989	0.4911
7.916	0.4658
7.844	0.6244
7.773	0.7494
7.704	0.8206
7.636	1.027
7.569	0.9902
7.503	1.1636
7.439	1.4128
7.375	1.5242
7.313	1.599
7.252	1.7277
7.191	1.8912
7.132	2.085
7.073	2.2342
7.016	2.1666
6.96	2.34
6.904	2.4366
6.849	2.4378
6.795	2.5691
6.742	2.6053
6.69	2.5244
6.639	2.7831
6.588	2.8708
6.538	2.9807
6.489	3.2295
6.441	3.1593
6.393	3.21
6.346	3.4255
6.3	3.5283
6.254	3.4911
6.209	3.6995
6.165	3.7778
6.121	3.9069
6.078	3.9027
6.036	3.8728
5.994	3.683
5.953	3.4972
5.912	3.2194
5.872	3.0167
5.832	2.7719
5.793	2.5602
5.755	2.408
5.716	2.6829
5.679	2.7811
5.642	3.0733
5.605	3.1885
5.569	3.3882
5.533	3.4907
5.498	3.6095
5.463	3.7391
5.429	3.7064
5.395	3.8624
5.362	3.9852
5.329	3.9779
5.296	4.219
5.264	4.3869
5.232	4.2485
5.2	4.3275
5.169	4.3367
5.139	4.4936
5.108	4.6545
5.078	4.893
5.049	5.1456
5.019	5.3603
4.99	5.6635
4.962	5.9121
4.933	6.1432
4.905	6.5675
4.878	7.1896
4.85	7.6895
4.823	8.1799
4.796	8.6336
4.77	9.3379
4.744	10.0187
4.718	10.6891
4.692	11.4485
4.667	12.6482
4.642	13.6982
4.617	14.9329
4.592	15.8658
4.568	16.0959
4.544	16.3159
4.52	16.3925
4.497	16.6896
4.474	17.8734
4.45	19.0556
4.428	20.5067
4.405	21.9369
4.383	23.5187
4.361	24.9937
4.339	26.0262
4.317	26.8208
4.296	27.5219
4.274	28.109
4.253	28.3565
4.233	29.0123
4.212	29.0598
4.191	29.1134
4.171	29.2761
4.151	29.4421
4.131	29.3783
4.112	29.2743
4.092	28.9388
4.073	28.5499
4.054	28.4745
4.035	28.3895
4.016	29.1128
3.998	29.7912
3.979	28.7142
3.961	30.4947
3.943	30.4568
3.925	30.6239
3.907	31.1655
3.89	31.319
3.872	31.1832
3.855	30.268
3.838	29.1227
3.821	28.0603
3.804	27.3494
3.787	27.1788
3.771	27.3327
3.754	27.7866
3.738	28.0571
3.722	28.0545
3.706	27.4603
3.69	26.6986
3.675	25.772
3.659	25.295
3.644	25.2584
3.628	25.7414
3.613	26.1631
3.598	26.2344
3.583	26.0961
3.568	25.7431
3.554	25.3521
3.539	24.8663
3.525	24.6238
3.51	24.6108
3.496	24.3517
3.482	23.8799
3.468	23.3077
3.454	22.5668
3.441	22.1808
3.427	22.173
3.413	22.0537
3.4	21.2538
3.387	19.7862
3.373	17.9627
3.36	16.6609
3.347	16.5989
3.334	16.7957
3.321	17.0377
3.309	17.1863
3.296	16.9091
3.284	16.2384
3.271	15.3343
3.259	14.3302
3.247	13.5224
3.234	12.8036
3.222	12.4196
3.21	11.9849
3.199	12.0126
3.187	11.7229
3.175	11.2771
3.163	10.9926
3.152	11.0669
3.14	11.0361
3.129	10.8312
3.118	10.4087
3.107	9.8822
3.095	9.0454
3.084	8.4262
3.073	8.2656
3.063	7.8746
3.052	7.9258
3.041	7.9732
3.03	8.1067
3.02	7.9869
3.009	7.7523
2.999	7.3891
2.988	6.9157
2.978	6.9029
2.968	6.6468
2.958	6.5548
2.948	5.5964
2.938	5.5184
2.928	6.0642
2.918	6.4731
2.908	6.737
2.898	6.9398
2.888	7.1165
2.879	7.0826
2.869	7.1241
2.86	7.3711
2.85	7.505
2.841	8.1332
2.832	8.7066
2.822	9.1767
2.813	9.7416
2.804	9.9833
2.795	9.9062
2.786	10.0307
2.777	10.2267
2.768	11.1196
2.759	11.8552
2.751	12.7585
2.742	13.6173
2.733	14.0198
2.725	16.289
2.716	17.8398
2.707	20.515
2.699	21.9958
2.691	23.0725
2.682	23.7604
2.674	23.6933
2.666	24.288
2.658	23.7251
2.649	26.1736
2.641	28.0055
2.633	28.9856
2.625	29.1557
2.617	30.2035
2.609	29.6967
2.602	29.3913
2.594	30.0983
2.586	28.6573
2.578	28.8133
2.571	28.3726
2.563	27.5292
2.555	25.8157
2.548	25.2368
2.54	24.4744
2.533	23.9123
2.525	23.6576
2.518	23.3193
2.511	23.11
2.504	22.7939
2.496	22.2481
2.489	22.2259
2.482	22.0716
2.475	21.9956
2.468	21.6949
2.461	21.1098
2.454	20.6811
2.447	19.9236
2.44	19.4206
2.433	19.0759
2.426	18.325
2.419	17.6811
2.413	16.9011
2.406	16.2783
2.399	15.6883
2.393	14.9418
2.386	13.976
2.379	12.4086
2.373	10.8057
2.366	10.5995
2.36	11.0177
2.354	11.1487
2.347	10.6998
2.341	10.2415
2.334	8.7836
2.328	7.8497
2.322	7.4287
2.316	8.0851
2.309	7.9359
2.303	7.7892
2.297	7.9249
2.291	8.5176
2.285	8.5986
2.279	8.8377
2.273	8.8611
2.267	9.0245
2.261	9.2096
2.255	9.4978
2.249	9.5194
2.244	9.4666
2.238	9.2544
2.232	9.2592
2.226	9.3241
2.22	9.4415
2.215	9.0927
2.209	9.3346
2.204	9.2173
2.198	8.8572
2.192	8.9435
2.187	8.8084
2.181	8.8444
2.176	8.9808
2.17	8.8287
2.165	8.5895
2.159	8.7094
2.154	8.7329
2.149	8.5458
2.143	8.6824
2.138	8.5869
2.133	8.6587
2.128	8.3936
2.122	8.5513
2.117	8.6418
2.112	8.4464
2.107	8.2064
2.102	8.8432
2.097	8.5973
2.091	8.4149
2.086	8.5923
2.081	8.3642
2.076	8.6151
2.071	8.5206
2.066	8.6395
2.062	8.4376
2.057	8.4177
2.052	8.3084
2.047	8.3593
2.042	8.703
2.037	8.3691
2.032	8.4833
2.028	8.5079
2.023	8.6012
2.018	8.563
2.014	8.6875
2.009	8.4579
2.004	8.8029
