Name: Natrolite Na_2Al_2Si_3O_10.2H_2O
Type: Mineral
Class: Silicates
Subclass: Tectosilicates
Particle Size: 125-500um
Sample No.: TS-8A
Owner: JPL
Origin: India, Maharashtra, Poona
Measurement: Hemispherical reflectance
X Units: Wavelength (micrometers)
Y Units: Reflectance (percent)
wavelength	value
15.385	3.1069
15.116	3.0766
14.856	2.2995
14.605	2.0174
14.362	1.5405
14.128	0.7172
13.9	1.0256
13.68	0.7175
13.467	1.0184
13.26	1.3568
13.06	1.8616
12.866	1.8086
12.677	2.1727
12.494	2.1617
12.316	2.681
12.143	2.7583
11.974	3.0875
11.811	3.3739
11.651	3.7349
11.496	4.0478
11.345	4.3371
11.198	4.9075
11.055	5.4375
10.915	6.3753
10.779	7.2815
10.647	9.2354
10.517	12.3979
10.39	20.7362
10.267	21.6732
10.146	27.3219
10.029	29.0896
9.914	28.4122
9.801	15.9667
9.691	1.887
9.584	11.5827
9.479	18.0979
9.376	16.4069
9.275	11.7642
9.177	19.7061
9.08	18.5346
8.986	19.9167
8.893	13.9735
8.803	7.3448
8.714	3.1988
8.627	1.2567
8.542	0.4156
8.458	0.0147
8.376	0.1795
8.296	0
8.217	0
8.139	0.1046
8.063	0.2059
7.989	0.1267
7.916	0.2931
7.844	0.2481
7.773	0.2567
7.704	0.277
7.636	0.3021
7.569	0.4399
7.503	0.4343
7.439	0.4366
7.375	0.4372
7.313	0.6221
7.252	0.4995
7.191	0.701
7.132	0.6954
7.073	0.7836
7.016	0.6761
6.96	0.7719
6.904	0.8238
6.849	0.8711
6.795	0.8306
6.742	1.0141
6.69	0.9147
6.639	1.1416
6.588	1.0676
6.538	1.0928
6.489	1.1552
6.441	1.1337
6.393	1.0578
6.346	1.2472
6.3	1.0644
6.254	1.1734
6.209	1.1018
6.165	1.0543
6.121	1.0251
6.078	1.0436
6.036	0.9801
5.994	1.244
5.953	1.2787
5.912	1.2661
5.872	1.3405
5.832	1.3721
5.793	1.3721
5.755	1.3807
5.716	1.4329
5.679	1.4877
5.642	1.6482
5.605	1.6518
5.569	1.8076
5.533	1.9096
5.498	1.9347
5.463	1.9294
5.429	2.1387
5.395	2.4771
5.362	2.6364
5.329	3.037
5.296	3.5851
5.264	4.0266
5.232	3.9528
5.2	3.7096
5.169	3.6427
5.139	3.5013
5.108	3.1304
5.078	2.9534
5.049	2.7323
5.019	2.732
4.99	3.3704
4.962	3.5529
4.933	3.6304
4.905	3.2766
4.878	2.941
4.85	2.8367
4.823	2.5769
4.796	2.2791
4.77	2.0012
4.744	1.7999
4.718	1.6073
4.692	1.4442
4.667	1.4323
4.642	1.4546
4.617	1.7289
4.592	2.068
4.568	2.3552
4.544	2.5713
4.52	3.0754
4.497	3.4107
4.474	4.1181
4.45	5.054
4.428	6.1244
4.405	6.9756
4.383	7.3565
4.361	7.9784
4.339	8.2532
4.317	8.4669
4.296	8.7186
4.274	9.3022
4.253	10.3563
4.233	11.0224
4.212	11.9105
4.191	12.7744
4.171	13.8256
4.151	15.4928
4.131	17.4184
4.112	18.6737
4.092	19.339
4.073	19.7001
4.054	18.9436
4.035	19.7235
4.016	20.6904
3.998	21.2195
3.979	21.3618
3.961	21.4916
3.943	21.4674
3.925	21.4673
3.907	21.14
3.89	20.7821
3.872	19.9563
3.855	18.8569
3.838	17.3093
3.821	18.0014
3.804	17.5958
3.787	17.1023
3.771	16.9046
3.754	16.3309
3.738	15.6278
3.722	14.5924
3.706	13.6961
3.69	13.0041
3.675	12.415
3.659	12.136
3.644	12.1033
3.628	12.1102
3.613	12.1017
3.598	11.6134
3.583	10.923
3.568	10.1197
3.554	9.4046
3.539	8.6568
3.525	8.1529
3.51	7.5385
3.496	6.9674
3.482	6.2474
3.468	5.8056
3.454	5.4233
3.441	4.8484
3.427	4.5985
3.413	4.181
3.4	3.7751
3.387	3.4855
3.373	3.2354
3.36	2.8942
3.347	2.6147
3.334	2.5334
3.321	2.2088
3.309	2.1205
3.296	2.0917
3.284	2.0308
3.271	2.0749
3.259	2.1694
3.247	1.9416
3.234	2.0405
3.222	1.923
3.21	1.9973
3.199	1.8913
3.187	1.8901
3.175	1.78
3.163	1.7999
3.152	1.7327
3.14	1.7677
3.129	1.7995
3.118	1.8333
3.107	1.6959
3.095	1.7703
3.084	1.7502
3.073	1.9308
3.063	1.8746
3.052	1.9121
3.041	1.9157
3.03	1.9413
3.02	2.0319
3.009	1.7947
2.999	1.455
2.988	1.3036
2.978	1.4135
2.968	1.6281
2.958	1.4981
2.948	1.3214
2.938	1.4415
2.928	1.464
2.918	1.6347
2.908	1.3037
2.898	1.7077
2.888	1.5324
2.879	1.4114
2.869	1.6419
2.86	1.7325
2.85	1.9453
2.841	1.9719
2.832	1.9515
2.822	1.353
2.813	1.0106
2.804	1.1162
2.795	1.1107
2.786	1.0972
2.777	1.482
2.768	1.4709
2.759	1.7949
2.751	1.6129
2.742	1.9171
2.733	1.782
2.725	2.6123
2.716	3.7007
2.707	5.0961
2.699	6.7711
2.691	7.8116
2.682	8.2531
2.674	8.1562
2.666	8.9836
2.658	9.6581
2.649	10.2503
2.641	10.1805
2.633	11.2756
2.625	12.6127
2.617	13.6159
2.609	13.3198
2.602	12.1345
2.594	10.271
2.586	9.3625
2.578	10.8324
2.571	13.3211
2.563	16.1815
2.555	18.6495
2.548	21.1202
2.54	22.5869
2.533	23.545
2.525	24.1303
2.518	24.6602
2.511	24.8721
2.504	25.4962
2.496	25.0205
2.489	23.334
2.482	20.6142
2.475	17.5955
2.468	15.054
2.461	14.6693
2.454	15.3467
2.447	14.8965
2.44	12.9266
2.433	11.3914
2.426	11.6185
2.419	13.8699
2.413	17.3009
2.406	21.3727
2.399	24.9245
2.393	27.111
2.386	28.1654
2.379	29.0225
2.373	30.1887
2.366	31.9472
2.36	33.618
2.354	35.047
2.347	35.9402
2.341	37.4489
2.334	39.282
2.328	40.8585
2.322	42.2737
2.316	43.7621
2.309	44.8748
2.303	45.6209
2.297	45.6482
2.291	45.0109
2.285	43.8319
2.279	43.1074
2.273	42.8155
2.267	43.901
2.261	44.6412
2.255	45.3247
2.249	45.2578
2.244	44.6183
2.238	43.8987
2.232	42.8449
2.226	41.0091
2.22	38.6401
2.215	36.0757
2.209	33.2251
2.204	30.6062
2.198	29.4555
2.192	30.5221
2.187	32.283
2.181	34.354
2.176	35.0385
2.17	35.4688
2.165	35.2446
2.159	35.602
2.154	36.0876
2.149	36.324
2.143	37.2297
2.138	37.3299
2.133	37.2436
2.128	36.5371
2.122	35.5982
2.117	34.6164
2.112	33.0164
2.107	31.5392
2.102	28.6339
2.097	27.2122
2.091	25.5272
2.086	24.3444
2.081	24.5047
2.076	24.783
2.071	24.7027
2.066	25.642
2.062	26.1549
2.057	26.0258
2.052	25.4503
2.047	24.664
2.042	23.3833
2.037	21.1885
2.032	19.2315
2.028	17.0635
2.023	15.5163
2.018	14.2844
2.014	14.1407
2.009	13.5121
2.004	13.4239
