Name: Galena PbS
Type: Mineral
Class: Sulfides
Particle Size: 45-125um
Sample No.: S-7A
Owner: JPL
Origin: USA, Kansas, Cherokee County, Galena.
Measurement: Hemispherical reflectance
X Units: Wavelength (micrometers)
Y Units: Reflectance (percent)
wavelength	value
2.5	12.2946
2.494	12.2381
2.488	12.3309
2.482	12.3006
2.476	12.3755
2.47	12.3404
2.464	12.4072
2.458	12.3488
2.452	12.3571
2.446	12.3943
2.44	12.3745
2.434	12.3372
2.428	12.386
2.422	12.2777
2.416	12.3939
2.41	12.3102
2.404	12.3821
2.398	12.2869
2.392	12.3429
2.386	12.3448
2.38	12.3499
2.374	12.3812
2.368	12.3745
2.362	12.3257
2.356	12.4
2.35	12.3985
2.344	12.3653
2.338	12.3564
2.332	12.3977
2.326	12.3309
2.32	12.3203
2.314	12.2948
2.308	12.3091
2.302	12.3271
2.296	12.2788
2.29	12.3235
2.284	12.2608
2.278	12.2346
2.272	12.2916
2.266	12.2525
2.26	12.1669
2.254	12.2395
2.248	12.2407
2.242	12.2146
2.236	12.1664
2.23	12.1389
2.224	12.1563
2.218	12.2183
2.212	12.341
2.206	12.1472
2.2	12.169
2.194	12.2137
2.188	12.1993
2.182	12.253
2.176	12.2263
2.17	12.2086
2.164	12.2871
2.158	12.3069
2.152	12.3207
2.146	12.3394
2.14	12.3278
2.134	12.3075
2.128	12.3037
2.122	12.1993
2.116	12.1242
2.11	12.12
2.104	11.9998
2.098	11.9897
2.092	12.022
2.086	12.0309
2.08	12.0685
2.074	12.0514
2.068	12.0789
2.062	12.0676
2.056	12.0661
2.05	12.0767
2.044	12.094
2.038	12.1012
2.032	12.0918
2.026	12.1467
2.02	12.1474
2.014	12.0678
2.008	12.1163
2.002	12.1571
1.996	12.2164
1.99	12.0863
1.984	12.1019
1.978	12.0945
1.972	12.1092
1.966	12.0397
1.96	12.0932
1.954	12.0678
1.948	12.0882
1.942	12.101
1.936	12.1047
1.93	12.0697
1.924	12.1174
1.918	12.1339
1.912	12.1303
1.906	12.2162
1.9	12.1283
1.894	12.1521
1.888	12.1042
1.882	12.1349
1.876	12.1328
1.87	12.1808
1.864	12.1667
1.858	12.1161
1.852	12.1826
1.846	12.1752
1.84	12.1477
1.834	12.1494
1.828	12.1006
1.822	12.1864
1.816	12.1674
1.81	12.1016
1.804	12.1213
1.798	12.1231
1.792	12.1228
1.786	12.1534
1.78	12.1008
1.774	12.0932
1.768	12.1425
1.762	12.1045
1.756	12.0921
1.75	12.0761
1.744	12.1112
1.738	12.1453
1.732	12.1009
1.726	12.1144
1.72	12.1145
1.714	12.1531
1.708	12.0493
1.702	12.0961
1.696	12.1141
1.69	12.1159
1.684	12.1364
1.678	12.1113
1.672	12.0836
1.666	12.0827
1.66	12.1545
1.654	12.1877
1.648	12.1125
1.642	12.1414
1.636	12.1536
1.63	12.0907
1.624	12.0851
1.618	12.1359
1.612	12.0871
1.606	12.157
1.6	12.1979
1.594	12.1711
1.588	12.1292
1.582	12.1961
1.576	12.1445
1.57	12.1305
1.564	12.1781
1.558	12.1659
1.552	12.1761
1.546	12.1395
1.54	12.1774
1.534	12.1769
1.528	12.1897
1.522	12.1543
1.516	12.1545
1.51	12.2079
1.504	12.1996
1.498	12.2501
1.492	12.1804
1.486	12.2509
1.48	12.186
1.474	12.2332
1.468	12.1978
1.462	12.1866
1.456	12.216
1.45	12.2703
1.444	12.1666
1.438	12.2889
1.432	12.1846
1.426	12.2532
1.42	12.2229
1.414	12.2478
1.408	12.2553
1.402	12.2883
1.396	12.2946
1.39	12.2912
1.384	12.2294
1.378	12.3815
1.372	12.2987
1.366	12.3739
1.36	12.3026
1.354	12.3634
1.348	12.2869
1.342	12.2995
1.336	12.3411
1.33	12.3052
1.324	12.2923
1.318	12.3956
1.312	12.3124
1.306	12.3701
1.3	12.3172
1.294	12.3665
1.288	12.3284
1.282	12.3604
1.276	12.3861
1.27	12.4023
1.264	12.4083
1.258	12.3253
1.252	12.3657
1.246	12.3623
1.24	12.3704
1.234	12.3808
1.228	12.4133
1.222	12.4106
1.216	12.3967
1.21	12.3703
1.204	12.4064
1.198	12.3978
1.192	12.379
1.186	12.46
1.18	12.4422
1.174	12.4626
1.168	12.4271
1.162	12.4235
1.156	12.4419
1.15	12.4398
1.144	12.4203
1.138	12.471
1.132	12.4937
1.126	12.4567
1.12	12.4687
1.114	12.5293
1.108	12.4959
1.102	12.5084
1.096	12.4991
1.09	12.5325
1.084	12.4559
1.078	12.603
1.072	12.5846
1.066	12.5935
1.06	12.5437
1.054	12.5972
1.048	12.5459
1.042	12.6019
1.036	12.5674
1.03	12.646
1.024	12.6527
1.018	12.6424
1.012	12.6498
1.006	12.6908
1	12.6883
0.994	12.7256
0.988	12.6564
0.982	12.739
0.976	12.7229
0.97	12.7186
0.964	12.7204
0.958	12.7362
0.952	12.7608
0.946	12.8746
0.94	12.848
0.934	12.8055
0.928	12.8697
0.922	12.8995
0.916	12.9054
0.91	12.9069
0.904	12.8847
0.898	12.8682
0.892	12.9426
0.886	12.9292
0.88	12.9745
0.874	13.016
0.868	13.0719
0.862	13.1267
0.856	13.4423
0.85	13.4592
0.844	13.4754
0.838	13.4851
0.832	13.5215
0.826	13.5291
0.82	13.5448
0.814	13.5601
0.808	13.5776
0.802	13.6082
0.796	13.6243
0.79	13.6421
0.784	13.6634
0.778	13.6903
0.772	13.6978
0.766	13.721
0.76	13.738
0.754	13.7672
0.748	13.7937
0.742	13.8226
0.736	13.8348
0.73	13.8616
0.724	13.8898
0.718	13.9141
0.712	13.9448
0.706	13.9692
0.7	13.9928
0.694	14.0144
0.688	14.0326
0.682	14.0463
0.676	14.0559
0.67	14.0527
0.664	14.0408
0.658	14.0204
0.652	13.9876
0.646	13.9549
0.64	13.9087
0.634	13.8609
0.628	13.8151
0.622	13.7754
0.616	13.7385
0.61	13.7024
0.604	13.6815
0.598	13.6697
0.592	13.6667
0.586	13.6664
0.58	13.6732
0.574	13.6902
0.568	13.7137
0.562	13.7504
0.556	13.7865
0.55	13.8343
0.544	13.8834
0.538	13.9444
0.532	14.0139
0.526	14.0957
0.52	14.1865
0.514	14.2898
0.508	14.403
0.502	14.53
0.496	14.6561
0.49	14.7865
0.484	14.9186
0.478	15.042
0.472	15.174
0.466	15.3197
0.46	15.4664
0.454	15.6278
0.448	15.7896
0.442	15.9491
0.436	16.133
0.43	16.3082
0.424	16.5061
0.418	16.7124
0.412	16.9234
0.406	17.1552
0.4	17.409
