Name: Actinolite Ca_2(Mg,Fe^2+)_5Si_8O_22(OH)_2
Type: Mineral
Class: Silicates
Subclass: Inosilicates
Particle Size: 0-45um
Sample No.: IN-4A
Owner: JPL
Origin: USA, California, San Bernadino County, Wrightwood
Measurement: Hemispherical reflectance
X Units: Wavelength (micrometers)
Y Units: Reflectance (percent)
wavelength	value
15.3853	2.15359
15.1161	2.12961
14.8563	2.85428
14.6052	3.61172
14.3624	3.26101
14.1276	3.65692
13.9004	4.25242
13.6803	4.40115
13.4671	4.12322
13.2604	4.44784
13.06	4.2347
12.8656	3.23526
12.6769	5.01866
12.4936	7.02487
12.3155	8.28573
12.1425	8.42339
11.9742	8.36722
11.8106	7.98399
11.6513	8.12643
11.4963	8.02032
11.3454	7.07477
11.1983	6.31156
11.0551	6.03792
10.9154	6.25348
10.7793	5.10314
10.6465	6.67618
10.5169	9.54062
10.3904	10.9908
10.267	12.115
10.1464	13.9536
10.0287	14.3335
9.91364	12.2595
9.80119	8.89863
9.69128	7.33177
9.5838	7.38991
9.47867	7.57615
9.37583	8.53248
9.27519	10.1315
9.17669	9.98766
9.08027	7.84415
8.98585	6.36315
8.89337	6.88235
8.80277	9.69687
8.714	11.467
8.62701	10.3727
8.54174	5.76541
8.45813	3.16926
8.37614	1.85654
8.29573	1.62592
8.21685	1.73209
8.13946	1.99945
8.0635	2.75111
7.98896	3.7317
7.91578	4.90544
7.84392	6.0249
7.77337	6.95875
7.70406	8.13779
7.63598	9.37521
7.5691	10.4219
7.50338	10.9714
7.43879	11.4529
7.37529	12.0743
7.31288	13.3331
7.25152	14.6668
7.19117	15.9645
7.13182	17.1388
7.07344	18.1813
7.01601	19.1635
6.95951	20.5496
6.90391	21.2991
6.84918	22.0524
6.79532	23.2522
6.74231	23.9171
6.69011	25.1007
6.63871	27.5866
6.5881	28.6307
6.53825	29.26
6.48915	29.8097
6.44079	27.7292
6.39314	25.8837
6.34618	23.9199
6.29992	20.8931
6.25432	19.3638
6.20938	18.7067
6.16508	19.6374
6.12141	20.8639
6.07835	22.7597
6.0359	24.6768
5.99403	25.1948
5.95274	23.2414
5.91201	22.5594
5.87184	24.3373
5.83221	25.918
5.79311	26.763
5.75453	28.2067
5.71646	29.1902
5.6789	29.0222
5.64182	29.6781
5.60522	30.0666
5.5691	30.8033
5.53344	32.6093
5.49823	32.8482
5.46347	32.2792
5.42914	33.6016
5.39525	33.9886
5.36177	33.4865
5.32871	32.9333
5.29605	34.9201
5.26379	35.4293
5.23192	37.7354
5.20044	39.4082
5.16933	37.5189
5.13859	35.6284
5.10821	36.1471
5.07819	37.2686
5.04852	38.1827
5.0192	39.7431
4.99021	41.2461
4.96156	42.6604
4.93324	44.0901
4.90524	45.5208
4.87755	46.371
4.85017	46.6701
4.8231	46.6777
4.79633	47.3978
4.76986	49.3238
4.74367	51.5729
4.71777	53.0262
4.69216	54.1634
4.66682	55.8055
4.64175	57.2349
4.61695	58.9987
4.59241	60.0404
4.56814	61.2721
4.54411	62.5166
4.52034	63.242
4.49682	63.9722
4.47354	64.5941
4.4505	65.1816
4.4277	65.4761
4.40513	65.7807
4.38278	65.9809
4.36067	66.1353
4.33877	66.0681
4.3171	65.5273
4.29564	64.2867
4.27439	63.8347
4.25335	65.4265
4.23252	62.998
4.21189	65.4481
4.19146	66.876
4.17123	66.9273
4.15119	67.0253
4.13134	67.1434
4.11168	67.1399
4.09221	67.3542
4.07292	67.4707
4.05382	67.4149
4.03489	67.1929
4.01614	66.8423
3.99756	65.7678
3.97915	65.1275
3.96091	65.4696
3.94284	66.2537
3.92493	66.5466
3.90718	66.5623
3.8896	66.6098
3.87217	66.6013
3.8549	66.3777
3.83777	66.3051
3.82081	66.3479
3.80399	66.442
3.78731	66.3519
3.77079	66.1049
3.7544	65.8599
3.73816	65.6373
3.72206	65.2459
3.7061	64.8856
3.69027	64.4134
3.67458	64.2395
3.65902	63.9551
3.64359	63.5706
3.6283	63.2384
3.61312	62.8105
3.59808	62.4812
3.58316	62.088
3.56836	61.4641
3.55369	61.005
3.53914	60.4718
3.5247	59.5576
3.51038	58.5139
3.49618	57.7219
3.48209	57.0419
3.46812	56.7565
3.45425	56.2794
3.4405	55.4314
3.42686	54.3112
3.41332	53.2856
3.39989	52.766
3.38657	52.1932
3.37335	51.3237
3.36023	50.8521
3.34721	50.3375
3.3343	50.6737
3.32148	50.8487
3.30876	50.8501
3.29614	51.2715
3.28362	51.7767
3.27119	52.0857
3.25885	52.4816
3.24661	52.5004
3.23446	52.5554
3.22239	52.5779
3.21042	52.4065
3.19854	51.8774
3.18674	51.5997
3.17504	51.0758
3.16341	51.21
3.15187	51.3732
3.14042	51.7605
3.12905	51.7316
3.11776	51.845
3.10655	52.0608
3.09542	52.1687
3.08437	52.3354
3.0734	52.1535
3.06251	52.1286
3.0517	52.1586
3.04096	52.1157
3.03029	51.9578
3.0197	51.6946
3.00919	51.5939
2.99875	51.2951
2.98838	50.8654
2.97808	50.5425
2.96785	50.463
2.95769	50.4551
2.9476	50.3718
2.93758	49.8078
2.92763	48.6336
2.91775	48.1018
2.90793	48.0996
2.89817	48.6205
2.88849	49.5526
2.87886	50.7311
2.8693	51.8742
2.85981	53.019
2.85038	53.8721
2.841	54.438
2.83169	54.8963
2.82245	55.1602
2.81326	55.2241
2.80413	55.99
2.79506	55.7284
2.78605	54.7909
2.77709	51.6144
2.7682	46.924
2.75936	39.5668
2.75057	35.702
2.74185	28.1404
2.73318	14.9222
2.72456	15.8613
2.71599	48.7752
2.70748	57.4337
2.69903	58.4867
2.69062	60.9301
2.68227	67.7351
2.67397	74.2301
2.66572	77.5146
2.65753	75.5549
2.64938	75.3422
2.64128	75.0094
2.63323	75.3185
2.62523	75.1047
2.61728	75.8271
2.60938	75.0563
2.60152	74.671
2.59371	75.8851
2.58595	74.5226
2.57824	74.0142
2.57057	73.5006
2.56294	74.0546
2.55536	73.1839
2.54783	73.8251
2.54034	73.5613
2.53289	73.4437
2.52549	73.2512
2.51813	72.543
2.51082	72.3658
2.50354	72.1713
2.49631	71.9021
2.48912	71.8677
2.48197	71.7157
2.47486	71.3807
2.46779	71.5638
2.46077	71.4838
2.45378	71.7627
2.44683	72.1361
2.43992	72.2735
2.43305	73.0349
2.42622	73.0224
2.41943	72.036
2.41267	72.2796
2.40595	71.4277
2.39928	69.6672
2.39263	67.0005
2.38603	65.7745
2.37946	68.3787
2.37292	71.3367
2.36642	72.9403
2.35996	74.0327
2.35353	74.1609
2.34714	74.1817
2.34078	73.3648
2.33446	71.4612
2.32817	67.5004
2.32191	63.2455
2.31569	62.8681
2.3095	64.1946
2.30335	64.9077
2.29722	64.3197
2.29113	68.6627
2.28507	71.0166
2.27905	72.4632
2.27305	74.4785
2.26709	75.9058
2.26116	77.0012
2.25526	77.164
2.24939	76.9867
2.24355	77.8326
2.23774	78.5944
2.23196	79.4625
2.22621	79.8022
2.22049	79.8742
2.21479	80.2069
2.20913	80.2412
2.2035	80.2798
2.19789	80.5471
2.19232	80.4576
2.18677	80.5704
2.18125	80.6779
2.17576	80.7973
2.17029	80.9456
2.16486	80.9934
2.15945	80.727
2.15406	81.1401
2.14871	81.0341
2.14338	80.8817
2.13808	81.0415
2.1328	80.953
2.12755	80.7392
2.12232	80.9034
2.11712	80.9392
2.11195	81.0705
2.1068	81.698
2.10168	82.221
2.09658	82.2542
2.0915	82.4586
2.08645	82.8067
2.08143	82.6498
2.07643	83.1065
2.07145	83.2552
2.06649	83.219
2.06156	83.2297
2.05666	83.1572
2.05177	83.6285
2.04691	83.5726
2.04208	84.0024
2.03726	83.948
2.03247	83.733
2.0277	84.1049
2.02295	84.2624
2.01823	83.949
2.01353	84.3095
2.00885	84.1806
2.00419	84.2623
