Name: Chlorite (Mg,Al)_6(Si,Al)_4O_10(OH)_8
Type: Mineral
Class: Silicates
Subclass: Phyllosilicates
Particle Size: 125-500um
Sample No.: PS-12C
Owner: JPL
Origin: USA, California.
Measurement: Hemispherical reflectance
X Units: Wavelength (micrometers)
Y Units: Reflectance (percent)
wavelength	value
2.5	25.3415
2.494	25.1417
2.488	25.0969
2.482	25.1017
2.476	25.0757
2.47	25.2372
2.464	25.6057
2.458	26.0963
2.452	26.635
2.446	27.3669
2.44	27.9089
2.434	28.3764
2.428	28.833
2.422	29.3043
2.416	29.497
2.41	29.3008
2.404	28.6234
2.398	27.7444
2.392	27.1256
2.386	26.6676
2.38	26.5927
2.374	26.3716
2.368	25.8575
2.362	24.9321
2.356	23.8688
2.35	22.7789
2.344	21.8461
2.338	21.0865
2.332	20.5732
2.326	20.5396
2.32	20.8714
2.314	21.4979
2.308	22.2878
2.302	22.9544
2.296	23.3933
2.29	24.3294
2.284	25.7691
2.278	27.288
2.272	28.1825
2.266	28.4642
2.26	28.284
2.254	28.0114
2.248	27.9661
2.242	29.0868
2.236	31.8936
2.23	35.3096
2.224	38.5097
2.218	40.8626
2.212	42.85
2.206	44.2685
2.2	45.3957
2.194	46.3887
2.188	47.3181
2.182	48.1286
2.176	48.9935
2.17	49.6498
2.164	50.2228
2.158	50.5944
2.152	51.0139
2.146	51.3587
2.14	51.4474
2.134	51.2958
2.128	51.2109
2.122	50.8227
2.116	50.5365
2.11	50.3323
2.104	50.4325
2.098	50.9022
2.092	51.5239
2.086	51.8744
2.08	51.7388
2.074	51.5077
2.068	51.291
2.062	50.8574
2.056	50.2738
2.05	49.6813
2.044	48.8562
2.038	47.9472
2.032	46.8841
2.026	45.6966
2.02	44.5102
2.014	43.4623
2.008	42.6859
2.002	42.3122
1.996	42.0798
1.99	41.9572
1.984	42.0726
1.978	42.4535
1.972	43.0148
1.966	43.4061
1.96	43.7891
1.954	44.0759
1.948	44.6053
1.942	45.1801
1.936	45.7691
1.93	46.1517
1.924	46.3028
1.918	46.4635
1.912	46.4234
1.906	46.5711
1.9	46.6783
1.894	46.5495
1.888	46.2124
1.882	45.901
1.876	46.0065
1.87	46.2446
1.864	46.7952
1.858	47.1683
1.852	47.5963
1.846	47.9564
1.84	48.3797
1.834	48.5856
1.828	48.7516
1.822	48.8539
1.816	48.9268
1.81	48.983
1.804	48.9366
1.798	48.979
1.792	48.8656
1.786	48.783
1.78	48.5919
1.774	48.4715
1.768	48.2354
1.762	48.0288
1.756	47.918
1.75	47.6907
1.744	47.4442
1.738	47.2063
1.732	46.9678
1.726	46.6915
1.72	46.3705
1.714	46.1527
1.708	45.8496
1.702	45.4845
1.696	45.1818
1.69	44.8472
1.684	44.479
1.678	44.0937
1.672	43.8295
1.666	43.4992
1.66	43.1535
1.654	42.7989
1.648	42.269
1.642	41.9985
1.636	41.491
1.63	41.1127
1.624	40.6493
1.618	40.1626
1.612	39.8418
1.606	39.2496
1.6	38.9407
1.594	38.4304
1.588	37.8971
1.582	37.5026
1.576	36.9815
1.57	36.5814
1.564	36.1829
1.558	35.7945
1.552	35.4265
1.546	35.1591
1.54	34.8764
1.534	34.5663
1.528	34.2892
1.522	34.1048
1.516	33.9329
1.51	33.7931
1.504	33.6044
1.498	33.5546
1.492	33.2799
1.486	33.0317
1.48	32.7049
1.474	32.2935
1.468	31.8551
1.462	31.2565
1.456	30.6544
1.45	30.1185
1.444	29.6922
1.438	29.5883
1.432	29.5931
1.426	29.7123
1.42	29.5653
1.414	28.7804
1.408	28.3478
1.402	27.8525
1.396	25.7773
1.39	24.2596
1.384	28.3048
1.378	29.459
1.372	29.1169
1.366	28.8537
1.36	28.5894
1.354	28.2618
1.348	27.9003
1.342	27.6123
1.336	27.3065
1.33	26.8881
1.324	26.6299
1.318	26.3424
1.312	26.0558
1.306	25.7055
1.3	25.3937
1.294	25.0817
1.288	24.8876
1.282	24.5207
1.276	24.2218
1.27	23.9771
1.264	23.6683
1.258	23.3546
1.252	23.1194
1.246	22.7952
1.24	22.527
1.234	22.1953
1.228	21.9668
1.222	21.701
1.216	21.4115
1.21	21.1651
1.204	20.9198
1.198	20.663
1.192	20.4706
1.186	20.253
1.18	20.0148
1.174	19.8424
1.168	19.6575
1.162	19.4465
1.156	19.3192
1.15	19.1411
1.144	18.9525
1.138	18.8541
1.132	18.8102
1.126	18.6733
1.12	18.5383
1.114	18.514
1.108	18.4505
1.102	18.3456
1.096	18.3371
1.09	18.2856
1.084	18.2919
1.078	18.2911
1.072	18.1615
1.066	18.2532
1.06	18.1344
1.054	18.1689
1.048	18.1935
1.042	18.2209
1.036	18.1596
1.03	18.1422
1.024	18.1664
1.018	18.0638
1.012	18.0342
1.006	18.0127
1	18.0008
0.994	17.8823
0.988	17.7998
0.982	17.7331
0.976	17.6647
0.97	17.4288
0.964	17.3361
0.958	17.2093
0.952	17.0076
0.946	16.8644
0.94	16.7012
0.934	16.555
0.928	16.4306
0.922	16.3938
0.916	16.2234
0.91	16.1048
0.904	16.0945
0.898	16.0413
0.892	16.0008
0.886	16.053
0.88	16.0849
0.874	16.1757
0.868	16.1925
0.862	16.3101
0.856	16.9175
0.85	17.0521
0.844	17.1787
0.838	17.3207
0.832	17.4322
0.826	17.5518
0.82	17.6624
0.814	17.7316
0.808	17.7801
0.802	17.7761
0.796	17.7296
0.79	17.6393
0.784	17.521
0.778	17.3328
0.772	17.1719
0.766	16.9748
0.76	16.7679
0.754	16.5915
0.748	16.4132
0.742	16.2724
0.736	16.1481
0.73	16.0579
0.724	15.9871
0.718	15.9528
0.712	15.9425
0.706	15.9664
0.7	16.0327
0.694	16.1234
0.688	16.2422
0.682	16.3983
0.676	16.5763
0.67	16.7787
0.664	16.9896
0.658	17.2278
0.652	17.4772
0.646	17.7337
0.64	17.9699
0.634	18.2547
0.628	18.5409
0.622	18.8333
0.616	19.1247
0.61	19.4076
0.604	19.6868
0.598	19.9621
0.592	20.2374
0.586	20.4896
0.58	20.7145
0.574	20.9153
0.568	21.0861
0.562	21.2136
0.556	21.3264
0.55	21.3855
0.544	21.4193
0.538	21.4425
0.532	21.4981
0.526	21.6138
0.52	21.7042
0.514	21.7123
0.508	21.6264
0.502	21.3801
0.496	20.9716
0.49	21.0032
0.484	20.7553
0.478	20.2749
0.472	19.729
0.466	19.1889
0.46	18.7383
0.454	18.3988
0.448	18.3279
0.442	18.3144
0.436	17.9728
0.43	17.6707
0.424	17.305
0.418	16.7835
0.412	16.3733
0.406	16.1222
0.4	16.049
