Name: Vesuvianite Ca_10(Mg,Fe^2+)_2Al_4(Si_2O_7)_2(SiO_4)_5(OH,F)_4
Type: Mineral
Class: Silicates
Subclass: Sorosilicate
Particle Size: 125-500um
Sample No.: SS-3A
Owner: JPL
Wavelength Range: VNIR-SWIR
Origin: USA, California, Riverside County, Crestmore Quarry
Measurement: Hemispherical reflectance
X Units: Wavelength (micrometers)
Y Units: Reflectance (percent)
wavelength	value
0.4	18.36
0.403	19.29
0.406	19.96
0.409	20.73
0.412	21.21
0.415	21.9
0.418	22.61
0.421	23.43
0.424	24.22
0.427	25.16
0.43	25.92
0.433	26.53
0.436	27.3
0.439	27.87
0.442	29.05
0.445	30.22
0.448	31.49
0.451	32.72
0.454	33.86
0.457	34.39
0.46	34.37
0.463	37.12
0.466	39.72
0.469	41.57
0.472	43.14
0.475	44.52
0.478	45.42
0.481	46.1
0.484	46.9
0.487	47.59
0.49	48.15
0.493	49.06
0.496	49.52
0.499	50.04
0.502	50.29
0.505	50.52
0.508	50.64
0.511	50.58
0.514	50.58
0.517	50.55
0.52	50.43
0.523	50.37
0.526	50.21
0.529	50.44
0.532	50.72
0.535	50.98
0.538	51.28
0.541	51.54
0.544	51.97
0.547	52.29
0.55	52.46
0.553	52.82
0.556	52.94
0.559	53.15
0.562	53.67
0.565	53.71
0.568	53.94
0.571	54.12
0.574	54.16
0.577	54.24
0.58	54.37
0.583	54.38
0.586	54.49
0.589	54.69
0.592	54.84
0.595	54.83
0.598	55.07
0.601	55.24
0.604	55.4
0.607	55.35
0.61	55.39
0.613	55.5
0.616	55.32
0.619	55.34
0.622	55.49
0.625	55.78
0.628	55.8
0.631	56.09
0.634	56.26
0.637	56.48
0.64	56.75
0.643	56.96
0.646	57.09
0.649	57.31
0.652	57.56
0.655	57.75
0.658	58.07
0.661	58.17
0.664	58.47
0.667	58.63
0.67	58.85
0.673	59.23
0.676	59.38
0.679	59.68
0.682	59.9
0.685	60.09
0.688	60.27
0.691	60.51
0.694	60.58
0.697	60.87
0.7	60.9
0.703	61.38
0.706	61.32
0.709	61.5
0.712	61.63
0.715	61.78
0.718	61.86
0.721	61.94
0.724	61.92
0.727	61.96
0.73	62.05
0.733	61.97
0.736	62.18
0.739	62.09
0.742	62.05
0.745	62.11
0.748	62.26
0.751	62.11
0.754	62.29
0.757	62.27
0.76	62.35
0.763	62.37
0.766	62.43
0.769	62.54
0.772	62.52
0.775	62.56
0.778	62.47
0.781	62.7
0.784	62.6
0.787	62.54
0.79	62.75
0.793	62.7
0.796	62.64
0.799	62.7
0.808	62.98
0.82	62.94
0.832	62.66
0.844	62.28
0.856	61.64
0.868	60.88
0.88	59.89
0.892	58.37
0.904	56.69
0.916	54.86
0.928	53.68
0.94	54.78
0.952	58.06
0.964	61.28
0.976	63.14
0.988	64.48
1	65.32
1.012	65.67
1.024	66.18
1.036	66.36
1.048	66.69
1.06	67.07
1.072	67.11
1.084	67.59
1.096	67.9
1.108	68.22
1.12	68.64
1.132	68.95
1.144	69.49
1.156	69.94
1.168	70.32
1.18	70.82
1.192	71.24
1.204	71.73
1.216	72.09
1.228	72.34
1.24	72.62
1.252	72.6
1.264	72.62
1.276	73.12
1.288	73.38
1.3	73.25
1.312	73.27
1.324	73.11
1.336	73.15
1.348	72.79
1.36	71.89
1.372	70.03
1.384	61.74
1.396	56.48
1.408	58.97
1.42	62.48
1.432	59.7
1.444	63.29
1.456	64.49
1.468	65.53
1.48	66.61
1.492	67.43
1.504	68.12
1.516	68.64
1.528	68.81
1.54	68.92
1.552	68.95
1.564	68.92
1.576	68.86
1.588	68.63
1.6	68.33
1.612	68.06
1.624	67.6
1.636	67.07
1.648	66.73
1.66	66.38
1.672	65.92
1.684	65.57
1.696	65.3
1.708	65.19
1.72	64.88
1.732	64.71
1.744	64.6
1.756	64.32
1.768	64.09
1.78	64.03
1.792	63.78
1.804	63.46
1.816	63.13
1.828	62.64
1.84	62.17
1.852	61.64
1.864	61.17
1.876	60.35
1.888	59.61
1.9	58.63
1.912	57.83
1.924	57.35
1.936	56.62
1.948	55.5
1.96	54.16
1.972	52.92
1.984	52.31
1.996	53.29
2.008	54.05
2.02	54.48
2.032	54.52
2.044	54.38
2.056	54.07
2.068	53.57
2.08	52.7
2.092	51.32
2.104	49.1
2.116	46.77
2.128	44.24
2.14	42.04
2.152	41.5
2.164	41.24
2.176	40.34
2.188	38.83
2.2	36.57
2.212	34.64
2.224	33.76
2.236	32.76
2.248	31.22
2.26	29.53
2.272	28.05
2.284	26.58
2.296	24.9
2.308	23.45
2.32	22.3
2.332	20.94
2.344	19.79
2.356	19.9
2.368	20.48
2.38	20.88
2.392	20.69
2.404	20.38
2.416	20.31
2.428	20.36
2.44	20.44
2.452	20.52
2.464	20.68
2.476	20.77
2.488	20.85
2.5	20.94
