Name: Gloss Black Paint
Type: Manmade materials
Class: General Construction Materials
Subclass: Paints
Particle Size: Solid
Sample No.: 1247
Owner: JPL
Origin: The Testor Corp., 620 Buckbee St., Rockford, IL 61104
Description: Glossy black spray enamel paint
Measurement: Hemispherical reflectance
X Units: Wavelength (micrometers)
Y Units: Reflectance (percent)
wavelength	value
14.0131	7.77276
13.7895	8.4706
13.5729	7.71759
13.363	6.996
13.1595	8.98461
12.9621	8.42774
12.7705	6.10956
12.5845	7.6552
12.4039	7.85282
12.2284	6.16827
12.0578	8.03291
11.8918	7.99638
11.7304	7.71663
11.5733	7.64555
11.4203	7.91384
11.2714	7.82666
11.1263	8.0142
10.9848	8.57863
10.8469	8.78387
10.7125	8.47458
10.5813	7.76072
10.4533	6.85662
10.3284	6.05203
10.2064	5.90219
10.0872	5.9479
9.97084	5.79822
9.8571	6.31434
9.74592	6.285
9.63724	6.10133
9.53094	6.26616
9.42697	6.20274
9.32524	5.699
9.22568	5.70195
9.12823	6.19475
9.03281	6.04389
8.93937	5.55969
8.84784	5.23807
8.75816	5.13451
8.67029	5.19576
8.58416	5.10126
8.49973	5.11128
8.41693	5.24782
8.33574	5.24669
8.2561	5.4948
8.17797	5.99321
8.10131	5.66656
8.02606	5.73089
7.9522	5.6165
7.87969	5.35708
7.80849	4.95167
7.73856	4.57423
7.66987	4.46427
7.60239	4.57614
7.5361	4.88545
7.47094	4.86965
7.4069	4.80336
7.34396	4.8403
7.28207	4.90122
7.22122	4.74747
7.16137	5.02499
7.10251	5.28516
7.04461	5.39411
6.98765	5.43006
6.9316	5.04287
6.87644	4.92647
6.82215	4.63404
6.76871	4.8003
6.71611	4.73413
6.66431	5.12029
6.61331	4.71483
6.56308	5.23198
6.51361	5.37162
6.46488	5.64274
6.41687	5.77416
6.36957	5.91603
6.32297	5.41996
6.27704	5.57553
6.23177	5.03001
6.18715	5.56065
6.14317	5.33042
6.0998	5.4193
6.05705	5.32961
6.01489	5.39944
5.97331	5.39774
5.9323	5.53664
5.89186	5.37118
5.85196	5.28207
5.81259	5.28858
5.77376	4.95887
5.73543	3.86888
5.69762	3.92658
5.6603	4.65114
5.62347	5.09527
5.5871	5.22993
5.55121	5.17198
5.51578	5.17046
5.4808	5.02701
5.44625	5.07604
5.41214	5.12664
5.37846	5.17309
5.34519	5.2341
5.31233	5.30339
5.27987	5.40209
5.24781	5.32276
5.21613	5.32123
5.18483	5.18507
5.15391	5.19394
5.12335	5.13483
5.09316	5.19086
5.06331	5.14965
5.03382	5.03635
5.00467	5.16053
4.97585	5.16012
4.94736	5.16285
4.9192	5.09671
4.89135	4.97947
4.86382	5.25542
4.8366	5.15664
4.80968	5.03514
4.78306	5.12651
4.75673	5.03223
4.73069	5.04141
4.70493	5.03422
4.67945	4.95341
4.65425	5.04296
4.62932	5.02415
4.60465	5.08968
4.58024	5.02217
4.55609	5.09448
4.5322	5.04697
4.50855	4.9549
4.48515	5.01657
4.46199	4.92917
4.43907	4.92625
4.41638	4.89976
4.39393	4.81031
4.3717	4.89053
4.34969	4.87773
4.32791	4.83943
4.30634	4.73473
4.28499	4.75697
4.26384	4.79718
4.24291	4.91476
4.22218	4.86397
4.20165	4.86645
4.18132	4.84079
4.16118	4.94418
4.14124	4.92215
4.12149	4.91668
4.10192	4.84624
4.08255	4.81911
4.06335	4.8282
4.04433	4.7793
4.02549	4.79632
4.00683	4.84986
3.98833	4.83645
3.97001	4.80394
3.95186	4.7427
3.93386	4.81165
3.91604	4.78384
3.89837	4.81763
3.88086	4.79086
3.86351	4.81586
3.84631	4.73967
3.82927	4.71931
3.81238	4.76391
3.79563	4.76315
3.77903	4.7841
3.76258	4.76942
3.74627	4.7709
3.7301	4.7744
3.71406	4.66277
3.69817	4.82015
3.68241	4.87376
3.66678	4.76715
3.65129	4.87255
3.63593	4.73578
3.62069	4.75817
3.60559	4.81001
3.59061	4.70307
3.57575	4.73748
3.56101	4.77497
3.5464	4.78504
3.5319	4.85917
3.51753	4.71197
3.50327	4.53121
3.48912	4.63107
3.47509	4.62383
3.46117	4.57482
3.44736	4.57256
3.43367	4.67737
3.42007	4.4873
3.40659	4.14497
3.39322	4.20402
3.37994	4.03632
3.36678	4.13088
3.35371	4.30126
3.34074	4.41585
3.32788	4.38969
3.31511	4.1928
3.30244	4.35308
3.28987	4.33428
3.27739	4.3124
3.26501	4.58458
3.25272	4.51911
3.24052	4.34678
3.22841	4.45972
3.2164	4.45056
3.20447	4.5563
3.19263	4.50661
3.18088	4.48576
3.16921	4.57893
3.15763	4.64923
3.14614	4.57247
3.13472	4.50081
3.12339	4.67975
3.11214	4.52394
3.10098	4.48849
3.08989	4.64124
3.07888	4.48875
3.06795	4.65354
3.0571	4.54976
3.04632	4.54382
3.03562	4.3954
3.02499	4.56683
3.01444	4.36816
3.00396	4.41754
2.99355	4.51013
2.98322	4.50566
2.97295	4.41415
2.96276	4.47609
2.95264	4.49965
2.94258	4.60216
2.9326	4.61931
2.92268	4.62214
2.91283	4.53214
2.90304	4.36783
2.89332	4.58413
2.88367	4.7805
2.87408	4.34422
2.86455	4.36632
2.85508	4.45822
2.84568	4.25567
2.83634	4.47181
2.82706	4.5169
2.81784	4.21769
2.80869	4.42649
2.79959	4.4515
2.79055	4.57332
2.78156	4.66605
2.77264	4.46075
2.76377	4.58612
2.75496	4.6417
2.7462	4.31233
2.7375	4.49951
2.72886	4.49629
2.72027	4.43894
2.71173	4.65066
2.70325	4.61366
2.69482	4.35196
2.68644	4.49022
2.67812	4.70025
2.66984	4.52792
2.66162	4.38486
2.65345	4.37184
2.64532	4.57976
2.63725	4.38854
2.62923	4.45746
2.62125	4.62951
2.61332	4.5602
2.60544	4.53202
2.59761	4.34031
2.58983	4.55213
2.58209	4.51555
2.5744	4.48529
2.56675	4.45541
2.55915	4.38516
2.55159	4.39849
2.54408	4.41898
2.53661	4.68628
2.52919	4.40263
2.52181	4.71842
2.51447	4.41918
2.50717	4.67373
2.49992	4.5807
2.49271	4.46566
2.48554	4.64867
2.47841	4.4716
2.47132	4.47719
2.46427	4.5589
2.45727	4.53166
2.4503	4.49584
2.44337	4.57849
2.43648	4.27031
2.42963	4.48633
2.42282	4.49607
2.41605	4.2932
2.40931	4.46305
2.40261	4.43688
2.39595	4.50941
2.38932	4.28444
2.38274	4.4645
2.37618	4.41911
2.36967	4.5115
2.36319	4.57573
2.35674	4.5466
2.35033	4.3915
2.34396	4.52317
2.33762	4.47808
2.33131	4.49492
2.32504	4.44572
2.3188	4.5318
2.31259	4.68727
2.30642	4.404
2.30028	4.46664
2.29417	4.59297
2.2881	4.61167
2.28206	4.54854
2.27605	4.34172
2.27007	4.49571
2.26412	4.58806
2.2582	4.48747
2.25232	4.59637
2.24646	4.50781
2.24064	4.85795
2.23484	4.68545
2.22908	4.26543
2.22334	4.4948
2.21764	4.52485
2.21196	4.50894
2.20631	4.41837
2.20069	4.43442
2.1951	4.55401
2.18954	4.53404
2.18401	4.26073
2.1785	4.53625
2.17302	4.82666
2.16757	4.48626
2.16215	4.34574
2.15675	4.41048
2.15138	4.83372
2.14604	4.78743
2.14072	4.32384
2.13543	4.32836
2.13017	4.54651
2.12493	4.56716
2.11972	4.84792
2.11453	4.18619
2.10937	4.33793
2.10423	4.78557
2.09912	4.7043
2.09404	4.30637
2.08897	4.47356
2.08394	4.54615
2.07892	4.03389
2.07393	4.23341
2.06897	4.37218
2.06403	4.49595
2.05911	4.28921
2.05421	4.6949
2.04934	4.42264
2.04449	4.51118
2.03967	4.34255
2.03486	4.91891
2.03008	4.61337
2.02533	4.33644
2.02059	4.576
2.01588	4.50263
2.01118	4.67236
2.00651	4.39913
2.00187	4.62678
