Name: Malachite Cu_2(CO_3)(OH)_2
Type: Mineral
Class: Carbonates
Particle Size: 125-500um
Sample No.: C-7A
Owner: JPL
Origin: USA, California, San Bernadino County, Near Valley Wells.
Measurement: Hemispherical reflectance
X Units: Wavelength (micrometers)
Y Units: Reflectance (percent)
wavelength	value
2.5	12.7458
2.494	12.7082
2.488	12.9238
2.482	13.0835
2.476	13.1378
2.47	13.3155
2.464	13.4801
2.458	13.5518
2.452	13.515
2.446	13.5425
2.44	13.5984
2.434	13.5343
2.428	13.6492
2.422	13.7036
2.416	13.8613
2.41	13.9133
2.404	14.1347
2.398	14.2455
2.392	14.6441
2.386	14.924
2.38	15.2868
2.374	15.6373
2.368	15.8162
2.362	16.0507
2.356	16.2246
2.35	16.8019
2.344	17.5744
2.338	18.5703
2.332	19.5074
2.326	20.1602
2.32	20.5548
2.314	20.6109
2.308	20.4142
2.302	19.912
2.296	19.276
2.29	18.5172
2.284	17.7442
2.278	17.0938
2.272	16.6147
2.266	16.564
2.26	17.1247
2.254	18.1416
2.248	19.2481
2.242	20.4218
2.236	21.4172
2.23	22.1783
2.224	22.7734
2.218	23.0976
2.212	23.6916
2.206	24.6924
2.2	25.8716
2.194	27.0234
2.188	28.0112
2.182	28.8912
2.176	29.4516
2.17	29.9372
2.164	30.3125
2.158	30.7163
2.152	31.0202
2.146	31.1399
2.14	31.2253
2.134	31.102
2.128	30.8841
2.122	30.4747
2.116	30.0255
2.11	29.6342
2.104	29.279
2.098	28.9726
2.092	28.7489
2.086	28.4652
2.08	28.1126
2.074	27.7085
2.068	27.2882
2.062	26.9271
2.056	26.4291
2.05	26.0209
2.044	25.5466
2.038	24.9263
2.032	24.3013
2.026	23.7126
2.02	23.101
2.014	22.5422
2.008	22.0214
2.002	21.4193
1.996	20.715
1.99	20.0858
1.984	19.4459
1.978	18.8436
1.972	18.2389
1.966	17.6833
1.96	17.1468
1.954	16.6607
1.948	16.1285
1.942	15.8609
1.936	15.392
1.93	15.0916
1.924	14.6697
1.918	14.4162
1.912	14.4216
1.906	14.9094
1.9	16.5476
1.894	18.9882
1.888	21.9193
1.882	24.6022
1.876	26.9732
1.87	29.1454
1.864	30.5485
1.858	31.0926
1.852	31.3211
1.846	31.3977
1.84	31.3842
1.834	31.3863
1.828	31.2983
1.822	31.1818
1.816	30.85
1.81	30.6324
1.804	30.3844
1.798	30.0981
1.792	29.8353
1.786	29.5263
1.78	29.3077
1.774	29.1502
1.768	28.8691
1.762	28.6834
1.756	28.4558
1.75	28.2085
1.744	27.986
1.738	27.7284
1.732	27.5117
1.726	27.2282
1.72	26.9359
1.714	26.6317
1.708	26.3823
1.702	26.0619
1.696	25.7094
1.69	25.4624
1.684	25.1345
1.678	24.8225
1.672	24.5587
1.666	24.241
1.66	23.8378
1.654	23.5388
1.648	23.2896
1.642	22.9696
1.636	22.616
1.63	22.2925
1.624	21.9302
1.618	21.5972
1.612	21.2655
1.606	20.935
1.6	20.6432
1.594	20.3161
1.588	20.0232
1.582	19.713
1.576	19.3983
1.57	19.1014
1.564	18.8567
1.558	18.5099
1.552	18.1637
1.546	17.8551
1.54	17.5872
1.534	17.3089
1.528	16.9998
1.522	16.7923
1.516	16.4614
1.51	16.1589
1.504	15.8222
1.498	15.566
1.492	15.3068
1.486	14.9612
1.48	14.6792
1.474	14.3511
1.468	14.032
1.462	13.8736
1.456	13.6958
1.45	13.44
1.444	13.3061
1.438	13.1579
1.432	12.9288
1.426	12.6612
1.42	12.3906
1.414	12.078
1.408	12.3367
1.402	12.8108
1.396	13.1028
1.39	13.3597
1.384	13.4761
1.378	13.53
1.372	13.5107
1.366	13.5116
1.36	13.3452
1.354	13.3162
1.348	13.093
1.342	13.0657
1.336	12.9935
1.33	12.8639
1.324	12.7836
1.318	12.716
1.312	12.5869
1.306	12.5116
1.3	12.4193
1.294	12.3217
1.288	12.2096
1.282	12.1236
1.276	12.0404
1.27	11.9531
1.264	11.8994
1.258	11.7631
1.252	11.7161
1.246	11.7022
1.24	11.5561
1.234	11.5283
1.228	11.4497
1.222	11.4184
1.216	11.2967
1.21	11.2687
1.204	11.1408
1.198	11.1916
1.192	11.1033
1.186	11.0687
1.18	11.0191
1.174	10.9816
1.168	10.9803
1.162	10.9521
1.156	10.8894
1.15	10.888
1.144	10.7836
1.138	10.8757
1.132	10.7336
1.126	10.6991
1.12	10.7285
1.114	10.6864
1.108	10.7122
1.102	10.567
1.096	10.5141
1.09	10.4726
1.084	10.3967
1.078	10.3089
1.072	10.2144
1.066	10.1157
1.06	10.0025
1.054	9.89374
1.048	9.80725
1.042	9.63724
1.036	9.46645
1.03	9.23026
1.024	9.07407
1.018	8.92619
1.012	8.69104
1.006	8.45995
1	8.25933
0.994	8.07955
0.988	7.86068
0.982	7.66325
0.976	7.38855
0.97	7.26755
0.964	6.99241
0.958	6.823
0.952	6.61931
0.946	6.48477
0.94	6.2654
0.934	6.07762
0.928	5.90578
0.922	5.75172
0.916	5.59426
0.91	5.42769
0.904	5.31031
0.898	5.18021
0.892	5.09005
0.886	5.04587
0.88	4.88216
0.874	4.89325
0.868	4.79897
0.862	4.69861
0.856	4.86062
0.85	4.81268
0.844	4.79071
0.838	4.74825
0.832	4.72106
0.826	4.69749
0.82	4.67978
0.814	4.67186
0.808	4.65211
0.802	4.65198
0.796	4.64082
0.79	4.64282
0.784	4.64901
0.778	4.65651
0.772	4.67519
0.766	4.6886
0.76	4.71381
0.754	4.74981
0.748	4.79025
0.742	4.85027
0.736	4.92234
0.73	4.99585
0.724	5.08092
0.718	5.1906
0.712	5.30549
0.706	5.43677
0.7	5.59097
0.694	5.76237
0.688	5.95431
0.682	6.17442
0.676	6.43056
0.67	6.72068
0.664	7.05764
0.658	7.44543
0.652	7.89413
0.646	8.4128
0.64	8.99168
0.634	9.68477
0.628	10.4896
0.622	11.4156
0.616	12.4778
0.61	13.6911
0.604	15.0665
0.598	16.6267
0.592	18.3323
0.586	20.2407
0.58	22.3209
0.574	24.5442
0.568	26.8638
0.562	29.2129
0.556	31.5378
0.55	33.6255
0.544	35.4197
0.538	36.8916
0.532	37.9291
0.526	38.5292
0.52	38.7169
0.514	38.5382
0.508	38.0248
0.502	37.1952
0.496	36.1384
0.49	34.867
0.484	33.3444
0.478	31.8823
0.472	30.2758
0.466	28.6725
0.46	27.1167
0.454	25.6914
0.448	24.4065
0.442	23.2301
0.436	22.1518
0.43	21.073
0.424	19.8986
0.418	18.5887
0.412	17.0761
0.406	15.3642
0.4	13.5661
