Name: Arsenopyrite FeAsS
Type: Mineral
Class: Sulfides
Particle Size: 45-125um
Sample No.: S-5A
Owner: JPL
Origin: USA, Nevada, Lander County, Austin.
Measurement: Hemispherical reflectance
X Units: Wavelength (micrometers)
Y Units: Reflectance (percent)
wavelength	value
2.5	8.92182
2.494	8.95618
2.488	9.05155
2.482	8.76301
2.476	8.77264
2.47	8.94856
2.464	8.88728
2.458	8.84915
2.452	8.67702
2.446	8.83465
2.44	8.77908
2.434	8.79988
2.428	8.85191
2.422	8.79313
2.416	8.78161
2.41	8.80191
2.404	8.85691
2.398	8.81697
2.392	8.83199
2.386	8.71548
2.38	8.79989
2.374	8.82327
2.368	8.81602
2.362	8.86313
2.356	8.77342
2.35	8.77159
2.344	8.7952
2.338	8.77895
2.332	8.80635
2.326	8.71803
2.32	8.69099
2.314	8.74922
2.308	8.72405
2.302	8.74837
2.296	8.70899
2.29	8.6791
2.284	8.69263
2.278	8.67238
2.272	8.69949
2.266	8.64649
2.26	8.60087
2.254	8.60498
2.248	8.61158
2.242	8.65108
2.236	8.63264
2.23	8.50751
2.224	8.56246
2.218	8.53896
2.212	8.68495
2.206	8.60203
2.2	8.62697
2.194	8.57834
2.188	8.60348
2.182	8.60753
2.176	8.65619
2.17	8.62918
2.164	8.66226
2.158	8.63942
2.152	8.72369
2.146	8.60393
2.14	8.6678
2.134	8.62567
2.128	8.57858
2.122	8.56073
2.116	8.53164
2.11	8.54236
2.104	8.52371
2.098	8.48044
2.092	8.47053
2.086	8.48237
2.08	8.53605
2.074	8.48778
2.068	8.48441
2.062	8.45805
2.056	8.46668
2.05	8.48938
2.044	8.40324
2.038	8.43249
2.032	8.46249
2.026	8.40597
2.02	8.40672
2.014	8.37159
2.008	8.37015
2.002	8.39859
1.996	8.37848
1.99	8.39829
1.984	8.42451
1.978	8.33898
1.972	8.40031
1.966	8.41193
1.96	8.32784
1.954	8.30554
1.948	8.37109
1.942	8.2625
1.936	8.36697
1.93	8.37881
1.924	8.41491
1.918	8.28967
1.912	8.42293
1.906	8.36337
1.9	8.41947
1.894	8.36734
1.888	8.353
1.882	8.41571
1.876	8.40134
1.87	8.35953
1.864	8.37396
1.858	8.35272
1.852	8.33901
1.846	8.27069
1.84	8.33305
1.834	8.37337
1.828	8.3795
1.822	8.31425
1.816	8.35734
1.81	8.28488
1.804	8.26754
1.798	8.24912
1.792	8.30469
1.786	8.25569
1.78	8.2424
1.774	8.27831
1.768	8.28558
1.762	8.25075
1.756	8.21941
1.75	8.21066
1.744	8.22504
1.738	8.22645
1.732	8.2033
1.726	8.21542
1.72	8.20811
1.714	8.22433
1.708	8.19003
1.702	8.17506
1.696	8.27047
1.69	8.24592
1.684	8.16343
1.678	8.17263
1.672	8.23221
1.666	8.23936
1.66	8.23022
1.654	8.18054
1.648	8.13752
1.642	8.2873
1.636	8.14063
1.63	8.16735
1.624	8.20427
1.618	8.17887
1.612	8.17297
1.606	8.19494
1.6	8.14673
1.594	8.14769
1.588	8.1269
1.582	8.22173
1.576	8.14805
1.57	8.14222
1.564	8.14455
1.558	8.11657
1.552	8.195
1.546	8.16765
1.54	8.13815
1.534	8.16889
1.528	8.21971
1.522	8.16188
1.516	8.13039
1.51	8.22496
1.504	8.1208
1.498	8.17382
1.492	8.11957
1.486	8.10617
1.48	8.17168
1.474	8.11278
1.468	8.18106
1.462	8.10039
1.456	8.12844
1.45	8.17498
1.444	8.09437
1.438	8.14353
1.432	8.19045
1.426	8.23151
1.42	8.17158
1.414	8.11921
1.408	8.14841
1.402	8.22471
1.396	8.27896
1.39	8.26132
1.384	8.11053
1.378	8.19064
1.372	8.21644
1.366	8.19048
1.36	8.29224
1.354	8.26792
1.348	8.16774
1.342	8.19644
1.336	8.18578
1.33	8.18311
1.324	8.22446
1.318	8.21773
1.312	8.24089
1.306	8.25081
1.3	8.16104
1.294	8.20451
1.288	8.2252
1.282	8.27183
1.276	8.2362
1.27	8.23071
1.264	8.25438
1.258	8.23564
1.252	8.2972
1.246	8.24975
1.24	8.23887
1.234	8.29977
1.228	8.29135
1.222	8.26438
1.216	8.30589
1.21	8.30992
1.204	8.27847
1.198	8.33975
1.192	8.36287
1.186	8.33026
1.18	8.37733
1.174	8.39316
1.168	8.36199
1.162	8.40761
1.156	8.50361
1.15	8.40399
1.144	8.43527
1.138	8.37882
1.132	8.58257
1.126	8.44663
1.12	8.46274
1.114	8.55376
1.108	8.52224
1.102	8.47715
1.096	8.49892
1.09	8.6209
1.084	8.57915
1.078	8.59502
1.072	8.51995
1.066	8.68553
1.06	8.66761
1.054	8.75106
1.048	8.71129
1.042	8.71184
1.036	8.74706
1.03	8.7941
1.024	8.80313
1.018	8.83104
1.012	8.83162
1.006	8.75269
1	8.84929
0.994	8.86098
0.988	8.90327
0.982	8.87441
0.976	8.92666
0.97	8.99993
0.964	9.01562
0.958	8.99798
0.952	9.00768
0.946	8.99687
0.94	9.04957
0.934	9.12472
0.928	9.07435
0.922	9.18013
0.916	9.20491
0.91	9.22176
0.904	9.23939
0.898	9.28883
0.892	9.236
0.886	9.3038
0.88	9.30921
0.874	9.39304
0.868	9.3209
0.862	9.41281
0.856	9.60303
0.85	9.63671
0.844	9.66241
0.838	9.69358
0.832	9.73543
0.826	9.74449
0.82	9.74999
0.814	9.76827
0.808	9.79212
0.802	9.82155
0.796	9.80936
0.79	9.82466
0.784	9.84134
0.778	9.84695
0.772	9.86978
0.766	9.88719
0.76	9.90213
0.754	9.91321
0.748	9.91762
0.742	9.93764
0.736	9.951
0.73	9.96612
0.724	9.982
0.718	9.98906
0.712	10.0049
0.706	10.0134
0.7	10.0185
0.694	10.0299
0.688	10.0385
0.682	10.0417
0.676	10.0514
0.67	10.0593
0.664	10.0612
0.658	10.0708
0.652	10.0738
0.646	10.0771
0.64	10.0802
0.634	10.0782
0.628	10.0809
0.622	10.08
0.616	10.0773
0.61	10.0757
0.604	10.0743
0.598	10.0712
0.592	10.0699
0.586	10.0628
0.58	10.0564
0.574	10.044
0.568	10.0334
0.562	10.0175
0.556	10.0058
0.55	9.99068
0.544	9.97147
0.538	9.94799
0.532	9.92427
0.526	9.89991
0.52	9.86775
0.514	9.83593
0.508	9.8034
0.502	9.77197
0.496	9.73038
0.49	9.69529
0.484	9.64108
0.478	9.57572
0.472	9.51311
0.466	9.44796
0.46	9.3837
0.454	9.3034
0.448	9.22877
0.442	9.14457
0.436	9.06506
0.43	9.00053
0.424	8.90925
0.418	8.80698
0.412	8.68619
0.406	8.55676
0.4	8.41546
