Name: Anthophyllite (Mg,Fe^2+)_7Si_8O_22(OH)_2
Type: Mineral
Class: Silicates
Subclass: Inosilicates
Particle Size: 0-45um
Sample No.: IN-8A
Owner: JPL
Origin: USA, North Carolina.
Measurement: Hemispherical reflectance
X Units: Wavelength (micrometers)
Y Units: Reflectance (percent)
wavelength	value
2.5	48.0838
2.494	47.7643
2.488	47.9765
2.482	47.9955
2.476	47.7835
2.47	47.5253
2.464	47.5759
2.458	47.5931
2.452	47.7809
2.446	47.8668
2.44	47.8815
2.434	47.8511
2.428	47.8737
2.422	48.0984
2.416	48.1588
2.41	48.2804
2.404	47.8209
2.398	47.1908
2.392	46.5388
2.386	46.2274
2.38	46.6641
2.374	47.2663
2.368	48.0698
2.362	48.6478
2.356	48.9681
2.35	49.0526
2.344	48.9819
2.338	48.6869
2.332	47.9225
2.326	46.6154
2.32	44.6385
2.314	42.8645
2.308	42.3699
2.302	43.5323
2.296	44.9752
2.29	45.6992
2.284	46.5961
2.278	47.975
2.272	49.2946
2.266	49.9864
2.26	50.6585
2.254	51.0957
2.248	51.5096
2.242	51.5646
2.236	51.8501
2.23	51.9769
2.224	52.2845
2.218	52.6681
2.212	52.8986
2.206	53.0691
2.2	53.364
2.194	53.4901
2.188	53.6751
2.182	53.8533
2.176	54.0586
2.17	54.2664
2.164	54.4335
2.158	54.7104
2.152	54.8998
2.146	54.9605
2.14	55.0733
2.134	55.0997
2.128	55.1058
2.122	55.0849
2.116	55.0737
2.11	55.0504
2.104	54.9982
2.098	55.052
2.092	55.2375
2.086	55.3652
2.08	55.4574
2.074	55.6859
2.068	55.9351
2.062	56.06
2.056	56.2092
2.05	56.3626
2.044	56.3916
2.038	56.5654
2.032	56.629
2.026	56.6751
2.02	56.7499
2.014	56.7734
2.008	56.8698
2.002	56.9145
1.996	56.8717
1.99	56.902
1.984	56.9419
1.978	56.9136
1.972	57.0551
1.966	57.0432
1.96	57.1005
1.954	57.1258
1.948	57.1808
1.942	57.2506
1.936	57.2283
1.93	57.394
1.924	57.4298
1.918	57.5263
1.912	57.684
1.906	57.8863
1.9	58.1664
1.894	58.4181
1.888	58.6784
1.882	58.9078
1.876	59.0444
1.87	59.1392
1.864	59.2898
1.858	59.3069
1.852	59.4626
1.846	59.5165
1.84	59.5074
1.834	59.5937
1.828	59.6499
1.822	59.6757
1.816	59.7236
1.81	59.8107
1.804	59.8915
1.798	59.9407
1.792	59.9977
1.786	59.9452
1.78	59.9731
1.774	60.0269
1.768	60.0456
1.762	60.076
1.756	60.122
1.75	60.216
1.744	60.2013
1.738	60.2837
1.732	60.3318
1.726	60.3701
1.72	60.3832
1.714	60.4211
1.708	60.3373
1.702	60.4537
1.696	60.4782
1.69	60.469
1.684	60.5067
1.678	60.4825
1.672	60.5676
1.666	60.5758
1.66	60.6412
1.654	60.6039
1.648	60.677
1.642	60.6953
1.636	60.6575
1.63	60.6756
1.624	60.6678
1.618	60.6838
1.612	60.72
1.606	60.7374
1.6	60.7045
1.594	60.7449
1.588	60.7759
1.582	60.7825
1.576	60.8014
1.57	60.7346
1.564	60.7285
1.558	60.6811
1.552	60.6975
1.546	60.6897
1.54	60.653
1.534	60.6327
1.528	60.6812
1.522	60.6483
1.516	60.6141
1.51	60.6013
1.504	60.5494
1.498	60.5284
1.492	60.5003
1.486	60.4347
1.48	60.4141
1.474	60.4079
1.468	60.2878
1.462	60.2574
1.456	60.237
1.45	60.163
1.444	60.09
1.438	60.0517
1.432	60.0456
1.426	59.8748
1.42	59.8847
1.414	59.8308
1.408	59.7159
1.402	59.312
1.396	56.58
1.39	56.1789
1.384	59.2567
1.378	59.8307
1.372	59.8268
1.366	59.8118
1.36	59.7557
1.354	59.7239
1.348	59.7824
1.342	59.6694
1.336	59.5147
1.33	59.5421
1.324	59.4654
1.318	59.4458
1.312	59.3362
1.306	59.2764
1.3	59.2284
1.294	59.1773
1.288	59.1332
1.282	59.1046
1.276	58.9415
1.27	58.9395
1.264	58.9284
1.258	58.8847
1.252	58.8326
1.246	58.7707
1.24	58.7411
1.234	58.6938
1.228	58.7046
1.222	58.5996
1.216	58.5865
1.21	58.4985
1.204	58.5067
1.198	58.4658
1.192	58.3777
1.186	58.4024
1.18	58.3853
1.174	58.2781
1.168	58.175
1.162	58.1593
1.156	58.1196
1.15	58.0354
1.144	57.9492
1.138	57.9449
1.132	57.8279
1.126	57.7768
1.12	57.6535
1.114	57.5733
1.108	57.4591
1.102	57.3287
1.096	57.2716
1.09	57.0537
1.084	57.017
1.078	56.8083
1.072	56.6156
1.066	56.4907
1.06	56.2433
1.054	56.061
1.048	55.9489
1.042	55.6936
1.036	55.4423
1.03	55.1662
1.024	54.8079
1.018	54.2803
1.012	53.9136
1.006	53.2696
1	52.7003
0.994	52.024
0.988	51.2964
0.982	50.6713
0.976	49.9923
0.97	49.5116
0.964	49.0111
0.958	48.6715
0.952	48.3802
0.946	48.2201
0.94	48.1903
0.934	48.2348
0.928	48.3029
0.922	48.6259
0.916	48.8935
0.91	49.2789
0.904	49.7469
0.898	50.2025
0.892	50.7197
0.886	51.2587
0.88	51.922
0.874	52.5895
0.868	53.0986
0.862	53.7488
0.856	54.7833
0.85	55.464
0.844	56.075
0.838	56.6466
0.832	57.2276
0.826	57.7459
0.82	58.2049
0.814	58.6902
0.808	59.0563
0.802	59.4279
0.796	59.653
0.79	59.9082
0.784	60.1098
0.778	60.2765
0.772	60.4219
0.766	60.5582
0.76	60.6445
0.754	60.7147
0.748	60.7585
0.742	60.8287
0.736	60.8649
0.73	60.906
0.724	60.9221
0.718	60.9729
0.712	60.9906
0.706	61.0249
0.7	61.0258
0.694	61.0325
0.688	61.0774
0.682	61.0974
0.676	61.1204
0.67	61.1286
0.664	61.1457
0.658	61.14
0.652	61.1663
0.646	61.1599
0.64	61.1579
0.634	61.1787
0.628	61.2095
0.622	61.2055
0.616	61.224
0.61	61.2226
0.604	61.2168
0.598	61.2357
0.592	61.2541
0.586	61.212
0.58	61.1712
0.574	61.1269
0.568	61.0693
0.562	61.0063
0.556	60.8971
0.55	60.7799
0.544	60.6532
0.538	60.6198
0.532	60.5426
0.526	60.457
0.52	60.3253
0.514	60.1787
0.508	59.8495
0.502	59.6254
0.496	59.3673
0.49	59.0877
0.484	58.7826
0.478	58.4602
0.472	58.056
0.466	57.7105
0.46	57.3627
0.454	57.0278
0.448	56.6802
0.442	56.2513
0.436	55.7409
0.43	55.2022
0.424	54.7196
0.418	54.1487
0.412	53.6224
0.406	53.1202
0.4	52.5904
