Name: Muscovite KAl_2(Si_3Al)O_10(OH,F)_2
Type: Mineral
Class: Silicates
Subclass: Phyllosilicates
Particle Size: 0-45um
Sample No.: PS-16A
Owner: JPL
Wavelength Range: VNIR-SWIR
Origin: USA, Connecticut
Measurement: Hemispherical reflectance
X Units: Wavelength (micrometers)
Y Units: Reflectance (percent)
wavelength	value
0.4	53.38
0.403	54.24
0.406	54.35
0.409	54.41
0.412	55.15
0.415	55.21
0.418	55.38
0.421	55.84
0.424	56.01
0.427	56.17
0.43	56.69
0.433	56.57
0.436	57.03
0.439	57.32
0.442	57.15
0.445	57.71
0.448	57.71
0.451	57.83
0.454	58.18
0.457	58.01
0.46	58.18
0.463	58.36
0.466	58.36
0.469	58.59
0.472	58.36
0.475	58.72
0.478	58.95
0.481	58.78
0.484	59.13
0.487	59.13
0.49	59.13
0.493	59.48
0.496	59.31
0.499	59.66
0.502	59.89
0.505	59.66
0.508	59.95
0.511	59.77
0.514	60.06
0.517	60.51
0.52	60.17
0.523	60.68
0.526	60.68
0.529	60.62
0.532	60.85
0.535	60.4
0.538	60.62
0.541	60.68
0.544	60.57
0.547	60.74
0.55	60.74
0.553	60.97
0.556	61.08
0.559	61.08
0.562	61.37
0.565	61.03
0.568	61.43
0.571	61.03
0.574	61.08
0.577	61.37
0.58	60.8
0.583	61.2
0.586	61.08
0.589	61.2
0.592	61.31
0.595	61.08
0.598	61.49
0.601	61.31
0.604	61.54
0.607	61.43
0.61	61.49
0.613	61.49
0.616	61.31
0.619	61.37
0.622	61.31
0.625	61.54
0.628	61.37
0.631	61.37
0.634	61.72
0.637	61.2
0.64	61.6
0.643	61.43
0.646	61.54
0.649	61.6
0.652	61.31
0.655	61.72
0.658	61.37
0.661	61.49
0.664	61.49
0.667	61.49
0.67	61.83
0.673	61.49
0.676	61.6
0.679	61.54
0.682	61.49
0.685	61.77
0.688	61.43
0.691	61.72
0.694	61.6
0.697	61.54
0.7	61.26
0.703	61.6
0.706	61.37
0.709	61.66
0.712	61.72
0.715	61.54
0.718	61.89
0.721	61.6
0.724	61.66
0.727	61.72
0.73	61.6
0.733	61.72
0.736	61.66
0.739	61.6
0.742	61.77
0.745	61.43
0.748	61.72
0.751	61.6
0.754	61.6
0.757	61.95
0.76	61.89
0.763	61.83
0.766	62.22
0.769	61.77
0.772	62
0.775	61.95
0.778	61.83
0.781	62
0.784	61.6
0.787	61.77
0.79	62
0.793	61.54
0.796	61.83
0.799	62
0.808	62
0.82	62
0.832	61.77
0.844	61.77
0.856	61.77
0.868	61.66
0.88	61.54
0.892	61.31
0.904	61.31
0.916	61.26
0.928	61.37
0.94	61.08
0.952	61.03
0.964	61.03
0.976	61.2
0.988	60.97
1	61.03
1.012	60.91
1.024	60.91
1.036	60.85
1.048	60.85
1.06	60.85
1.072	60.68
1.084	60.74
1.096	60.62
1.108	60.68
1.12	60.57
1.132	60.62
1.144	60.4
1.156	60.45
1.168	60.43
1.18	60.42
1.192	60.3
1.204	60.29
1.216	60.23
1.228	60.17
1.24	60.17
1.252	60
1.264	60.04
1.276	59.97
1.288	60.01
1.3	59.83
1.312	59.82
1.324	59.74
1.336	59.83
1.348	59.71
1.36	59.54
1.372	59.48
1.384	59.25
1.396	58.05
1.408	57.1
1.42	58.42
1.432	58.94
1.444	59.19
1.456	59.31
1.468	59.19
1.48	59.31
1.492	59.37
1.504	59.48
1.516	59.31
1.528	59.31
1.54	59.19
1.552	59.31
1.564	58.96
1.576	59.08
1.588	58.96
1.6	58.96
1.612	58.95
1.624	58.83
1.636	58.75
1.648	58.68
1.66	58.67
1.672	58.6
1.684	58.53
1.696	58.51
1.708	58.51
1.72	58.51
1.732	58.28
1.744	58.22
1.756	58.22
1.768	58.11
1.78	58.05
1.792	58.11
1.804	58.26
1.816	57.86
1.828	57.81
1.84	57.81
1.852	57.82
1.864	57.52
1.876	57.23
1.888	56.81
1.9	56.46
1.912	56.22
1.924	56.04
1.936	56.25
1.948	56.18
1.96	56.48
1.972	56.5
1.984	56.62
1.996	56.75
2.008	56.87
2.02	56.79
2.032	56.83
2.044	56.84
2.056	56.86
2.068	56.83
2.08	56.76
2.092	56.65
2.104	56.68
2.116	56.61
2.128	56.66
2.14	56.31
2.152	55.72
2.164	54.99
2.176	53.75
2.188	52.28
2.2	52.07
2.212	52.76
2.224	53.81
2.236	54.23
2.248	54.59
2.26	54.66
2.272	54.64
2.284	54.46
2.296	54.42
2.308	54.21
2.32	53.87
2.332	53.4
2.344	53.07
2.356	53.06
2.368	52.89
2.38	52.7
2.392	52.49
2.404	51.93
2.416	51.64
2.428	51.08
2.44	50.95
2.452	50.66
2.464	50.48
2.476	50.42
2.488	50.4
2.5	50.34
