Name: Bytownite (Feldspar) (NaSi,CaAl)AlSi_2O_8
Type: Mineral
Class: Silicates
Subclass: Tectosilicates
Particle Size: 0-45um
Sample No.: TS-13A
Owner: JPL
Wavelength Range: VNIR-SWIR
Measurement: Hemispherical reflectance
X Units: Wavelength (micrometers)
Y Units: Reflectance (percent)
wavelength	value
0.4	59.36
0.403	59.9
0.406	60.16
0.409	60.52
0.412	60.8
0.415	60.96
0.418	61.29
0.421	61.53
0.424	61.82
0.427	62.25
0.43	62.43
0.433	62.83
0.436	63.2
0.439	63.47
0.442	63.79
0.445	64.07
0.448	64.31
0.451	64.54
0.454	64.79
0.457	64.94
0.46	65.17
0.463	65.44
0.466	65.58
0.469	65.68
0.472	65.86
0.475	66
0.478	66.13
0.481	66.28
0.484	66.45
0.487	66.67
0.49	66.76
0.493	66.96
0.496	67.1
0.499	67.31
0.502	67.45
0.505	67.65
0.508	67.92
0.511	68.13
0.514	68.17
0.517	68.42
0.52	68.52
0.523	68.7
0.526	68.8
0.529	68.97
0.532	69.01
0.535	69.06
0.538	69.29
0.541	69.49
0.544	69.46
0.547	69.59
0.55	69.79
0.553	69.87
0.556	69.9
0.559	70.01
0.562	70.56
0.565	70.66
0.568	70.68
0.571	70.72
0.574	70.58
0.577	70.66
0.58	70.77
0.583	70.8
0.586	70.92
0.589	70.95
0.592	71.05
0.595	71.11
0.598	71.13
0.601	71.22
0.604	71.32
0.607	71.26
0.61	71.28
0.613	71.28
0.616	71.31
0.619	71.22
0.622	71.22
0.625	71.29
0.628	71.29
0.631	71.29
0.634	71.38
0.637	71.47
0.64	71.34
0.643	71.35
0.646	71.38
0.649	71.53
0.652	71.54
0.655	71.62
0.658	71.58
0.661	71.64
0.664	71.67
0.667	71.78
0.67	71.7
0.673	71.69
0.676	71.66
0.679	71.81
0.682	71.79
0.685	71.83
0.688	71.85
0.691	71.89
0.694	71.95
0.697	71.93
0.7	71.91
0.703	72.1
0.706	72.14
0.709	72.17
0.712	72.21
0.715	72.23
0.718	72.26
0.721	72.26
0.724	72.27
0.727	72.4
0.73	72.41
0.733	72.43
0.736	72.43
0.739	72.46
0.742	72.59
0.745	72.63
0.748	72.57
0.751	72.66
0.754	72.63
0.757	72.69
0.76	72.75
0.763	72.81
0.766	72.88
0.769	72.9
0.772	72.88
0.775	72.86
0.778	72.92
0.781	72.96
0.784	72.98
0.787	72.94
0.79	72.91
0.793	72.96
0.796	73.07
0.799	72.98
0.808	72.03
0.82	71.88
0.832	71.86
0.844	71.83
0.856	71.76
0.868	71.76
0.88	71.75
0.892	71.67
0.904	71.59
0.916	71.61
0.928	71.62
0.94	71.72
0.952	71.75
0.964	71.85
0.976	71.67
0.988	71.75
1	71.72
1.012	71.69
1.024	71.54
1.036	71.54
1.048	71.49
1.06	71.34
1.072	71.31
1.084	71.26
1.096	71.2
1.108	71.07
1.12	71.06
1.132	70.95
1.144	70.82
1.156	70.86
1.168	70.79
1.18	70.69
1.192	70.58
1.204	70.62
1.216	70.56
1.228	70.51
1.24	70.58
1.252	70.59
1.264	70.59
1.276	70.61
1.288	70.61
1.3	70.51
1.312	70.66
1.324	70.55
1.336	70.59
1.348	70.58
1.36	70.7
1.372	70.69
1.384	70.56
1.396	70.53
1.408	70.47
1.42	70.46
1.432	70.52
1.444	70.6
1.456	70.73
1.468	70.86
1.48	70.94
1.492	71.19
1.504	71.24
1.516	71.43
1.528	71.41
1.54	71.51
1.552	71.57
1.564	71.67
1.576	71.64
1.588	71.69
1.6	71.81
1.612	71.79
1.624	71.86
1.636	71.81
1.648	71.89
1.66	71.86
1.672	71.87
1.684	71.93
1.696	72.05
1.708	72.04
1.72	71.97
1.732	71.92
1.744	71.84
1.756	71.88
1.768	71.87
1.78	71.86
1.792	71.94
1.804	71.86
1.816	71.97
1.828	71.78
1.84	71.85
1.852	71.72
1.864	71.52
1.876	71.22
1.888	70.48
1.9	69.26
1.912	67.98
1.924	66.98
1.936	66.47
1.948	66.53
1.96	66.98
1.972	67.47
1.984	67.99
1.996	68.63
2.008	69.14
2.02	69.59
2.032	69.91
2.044	70.14
2.056	70.3
2.068	70.51
2.08	70.76
2.092	71.02
2.104	71.2
2.116	71.34
2.128	71.42
2.14	71.38
2.152	71.24
2.164	71.2
2.176	71.23
2.188	71.12
2.2	71.17
2.212	71.03
2.224	71.12
2.236	71.03
2.248	71.07
2.26	71.05
2.272	71.15
2.284	70.92
2.296	70.83
2.308	70.7
2.32	70.78
2.332	70.72
2.344	70.63
2.356	70.41
2.368	70.08
2.38	69.61
2.392	68.98
2.404	68.54
2.416	68.07
2.428	67.7
2.44	67.29
2.452	67.05
2.464	66.75
2.476	66.63
2.488	66.71
2.5	66.72
