Name: Albite (Feldspar) (K,Na)AlSi_3O_8
Type: Mineral
Class: Silicates
Subclass: Tectosilicates
Particle Size: 125-500um
Sample No.: TS-6A
Owner: JPL
Wavelength Range: VNIR-SWIR
Measurement: Hemispherical reflectance
X Units: Wavelength (micrometers)
Y Units: Reflectance (percent)
wavelength	value
0.4	54.55
0.403	55.04
0.406	55.34
0.409	55.64
0.412	56.08
0.415	56.43
0.418	56.75
0.421	57.05
0.424	57.57
0.427	58.05
0.43	58.34
0.433	58.79
0.436	59.17
0.439	59.53
0.442	59.87
0.445	60.29
0.448	60.79
0.451	60.81
0.454	61.08
0.457	61.44
0.46	61.62
0.463	61.76
0.466	62.05
0.469	62.32
0.472	62.36
0.475	62.64
0.478	62.88
0.481	63.16
0.484	63.27
0.487	63.52
0.49	63.88
0.493	63.9
0.496	64.13
0.499	64.38
0.502	64.63
0.505	64.84
0.508	65.14
0.511	65.38
0.514	65.42
0.517	65.69
0.52	65.94
0.523	66.06
0.526	66.14
0.529	66.38
0.532	66.44
0.535	66.46
0.538	66.67
0.541	66.84
0.544	66.92
0.547	66.91
0.55	67.12
0.553	67.44
0.556	67.56
0.559	67.41
0.562	67.77
0.565	67.63
0.568	67.66
0.571	67.86
0.574	67.59
0.577	67.47
0.58	67.62
0.583	67.72
0.586	67.67
0.589	67.69
0.592	67.93
0.595	67.83
0.598	67.91
0.601	68.05
0.604	68.12
0.607	68.01
0.61	67.96
0.613	68.05
0.616	67.99
0.619	67.99
0.622	68.03
0.625	68.05
0.628	67.86
0.631	68.03
0.634	68.13
0.637	68.14
0.64	67.99
0.643	67.9
0.646	68.12
0.649	68
0.652	68
0.655	67.87
0.658	68.13
0.661	68.03
0.664	68.11
0.667	68.16
0.67	68.18
0.673	68.07
0.676	68.25
0.679	68.32
0.682	68.16
0.685	68.15
0.688	68.2
0.691	68.24
0.694	68.31
0.697	68.23
0.7	68.32
0.703	68.14
0.706	68.19
0.709	68.38
0.712	68.25
0.715	68.21
0.718	68.32
0.721	68.44
0.724	68.21
0.727	68.29
0.73	68.37
0.733	68.34
0.736	68.28
0.739	68.46
0.742	68.52
0.745	68.43
0.748	68.44
0.751	68.66
0.754	68.53
0.757	68.57
0.76	68.64
0.763	68.64
0.766	68.74
0.769	68.72
0.772	68.78
0.775	68.89
0.778	68.81
0.781	68.72
0.784	68.96
0.787	68.97
0.79	68.81
0.793	68.91
0.796	69.05
0.799	69.01
0.808	69.05
0.82	68.88
0.832	68.84
0.844	68.84
0.856	68.82
0.868	68.75
0.88	68.68
0.892	68.58
0.904	68.52
0.916	68.35
0.928	68.25
0.94	68.15
0.952	67.92
0.964	67.62
0.976	67.41
0.988	67.1
1	66.91
1.012	66.44
1.024	65.88
1.036	65.46
1.048	64.76
1.06	64.19
1.072	63.77
1.084	63.24
1.096	62.59
1.108	62.04
1.12	61.53
1.132	61
1.144	60.47
1.156	60.05
1.168	59.65
1.18	59.23
1.192	58.83
1.204	58.6
1.216	58.28
1.228	57.96
1.24	57.77
1.252	57.72
1.264	57.59
1.276	57.61
1.288	57.65
1.3	57.66
1.312	57.73
1.324	57.69
1.336	57.79
1.348	58.02
1.36	58.23
1.372	58.31
1.384	58.06
1.396	56.68
1.408	55.7
1.42	57.56
1.432	58.97
1.444	59.65
1.456	60.14
1.468	60.77
1.48	61.23
1.492	61.86
1.504	62.45
1.516	62.94
1.528	63.37
1.54	63.69
1.552	64.12
1.564	64.65
1.576	64.99
1.588	65.26
1.6	65.57
1.612	65.75
1.624	66.09
1.636	66.32
1.648	66.44
1.66	66.65
1.672	66.86
1.684	66.99
1.696	67.15
1.708	67.18
1.72	67.34
1.732	67.22
1.744	67.35
1.756	67.43
1.768	67.46
1.78	67.6
1.792	67.64
1.804	67.7
1.816	67.74
1.828	67.84
1.84	67.93
1.852	67.73
1.864	67.49
1.876	66.51
1.888	64.44
1.9	61.84
1.912	60.69
1.924	61.32
1.936	62.33
1.948	62.97
1.96	63.6
1.972	64.22
1.984	64.91
1.996	65.64
2.008	66.3
2.02	67.01
2.032	67.37
2.044	67.81
2.056	68.04
2.068	68.28
2.08	68.46
2.092	68.59
2.104	68.58
2.116	68.85
2.128	68.87
2.14	68.7
2.152	67.93
2.164	66.6
2.176	64.47
2.188	62.62
2.2	62.23
2.212	63.59
2.224	65.23
2.236	66.07
2.248	66.62
2.26	66.81
2.272	66.94
2.284	66.64
2.296	65.93
2.308	65.05
2.32	64.08
2.332	63.09
2.344	62.58
2.356	62.44
2.368	62.48
2.38	62.36
2.392	61.84
2.404	61.2
2.416	60.46
2.428	59.73
2.44	59.13
2.452	58.88
2.464	58.68
2.476	58.41
2.488	58.47
2.5	58.48
