Name: Columbite Fe^2+Nb_2O_6
Type: Mineral
Class: Oxides
Particle Size: 0-45um
Sample No.: O-7A
Owner: JPL
Origin: USA, South Dakota, Pennington County, Keystone.
Measurement: Hemispherical reflectance
X Units: Wavelength (micrometers)
Y Units: Reflectance (percent)
wavelength	value
2.5	36.1422
2.494	35.8176
2.488	35.9832
2.482	35.9168
2.476	35.8504
2.47	35.8989
2.464	35.7583
2.458	35.6951
2.452	35.6919
2.446	35.5718
2.44	35.5894
2.434	35.538
2.428	35.423
2.422	35.3463
2.416	35.2902
2.41	35.2499
2.404	35.2711
2.398	35.1717
2.392	35.0836
2.386	35.0429
2.38	34.9681
2.374	34.9794
2.368	34.8849
2.362	34.7884
2.356	34.7057
2.35	34.6736
2.344	34.5511
2.338	34.4793
2.332	34.3099
2.326	34.2647
2.32	34.1422
2.314	33.9502
2.308	33.8933
2.302	33.8116
2.296	33.7536
2.29	33.5746
2.284	33.4477
2.278	33.359
2.272	33.1775
2.266	33.1312
2.26	32.9352
2.254	32.8103
2.248	32.686
2.242	32.5808
2.236	32.5037
2.23	32.3848
2.224	32.2752
2.218	32.2556
2.212	32.1307
2.206	31.9215
2.2	31.8377
2.194	31.8106
2.188	31.6575
2.182	31.504
2.176	31.3949
2.17	31.3201
2.164	31.2299
2.158	31.1214
2.152	30.9701
2.146	30.8115
2.14	30.6375
2.134	30.5002
2.128	30.1689
2.122	29.9892
2.116	29.6525
2.11	29.4153
2.104	29.1202
2.098	28.8976
2.092	28.6832
2.086	28.5632
2.08	28.4028
2.074	28.1975
2.068	28.0435
2.062	27.9135
2.056	27.7176
2.05	27.4746
2.044	27.3439
2.038	27.1637
2.032	26.9544
2.026	26.7304
2.02	26.5015
2.014	26.3255
2.008	26.1094
2.002	25.9141
1.996	25.7231
1.99	25.4503
1.984	25.264
1.978	25.0067
1.972	24.7478
1.966	24.5543
1.96	24.2937
1.954	24.0587
1.948	23.8521
1.942	23.6108
1.936	23.3724
1.93	23.1159
1.924	23.0009
1.918	22.7584
1.912	22.6351
1.906	22.3484
1.9	22.151
1.894	21.9407
1.888	21.6782
1.882	21.4812
1.876	21.2942
1.87	21.1139
1.864	20.9249
1.858	20.6436
1.852	20.4523
1.846	20.2004
1.84	20.053
1.834	19.7991
1.828	19.6158
1.822	19.3992
1.816	19.1347
1.81	18.9107
1.804	18.7866
1.798	18.5496
1.792	18.3359
1.786	18.1804
1.78	17.9376
1.774	17.7062
1.768	17.5792
1.762	17.3748
1.756	17.2044
1.75	17.035
1.744	16.8758
1.738	16.6774
1.732	16.5588
1.726	16.3968
1.72	16.245
1.714	16.0501
1.708	15.9823
1.702	15.7262
1.696	15.5853
1.69	15.4078
1.684	15.3595
1.678	15.206
1.672	15.0418
1.666	14.9529
1.66	14.7712
1.654	14.7779
1.648	14.5927
1.642	14.613
1.636	14.4464
1.63	14.377
1.624	14.2376
1.618	14.1425
1.612	14.0018
1.606	13.9572
1.6	13.8341
1.594	13.7753
1.588	13.7244
1.582	13.6688
1.576	13.5409
1.57	13.4349
1.564	13.4011
1.558	13.3297
1.552	13.3191
1.546	13.2404
1.54	13.1929
1.534	13.0751
1.528	13.0406
1.522	13.0362
1.516	12.978
1.51	12.8809
1.504	12.8166
1.498	12.7951
1.492	12.7488
1.486	12.744
1.48	12.6009
1.474	12.559
1.468	12.4814
1.462	12.4405
1.456	12.4109
1.45	12.3351
1.444	12.2848
1.438	12.261
1.432	12.1494
1.426	12.098
1.42	12.1293
1.414	12.0015
1.408	11.9268
1.402	11.8513
1.396	11.8496
1.39	11.7532
1.384	11.6961
1.378	11.648
1.372	11.5309
1.366	11.5381
1.36	11.3915
1.354	11.3159
1.348	11.2501
1.342	11.2473
1.336	11.1172
1.33	11.0288
1.324	11.0458
1.318	10.8983
1.312	10.8302
1.306	10.8557
1.3	10.7606
1.294	10.7109
1.288	10.681
1.282	10.5804
1.276	10.5103
1.27	10.4318
1.264	10.4009
1.258	10.3992
1.252	10.2798
1.246	10.3273
1.24	10.1982
1.234	10.1629
1.228	10.1125
1.222	10.0491
1.216	10.0831
1.21	10.0376
1.204	10.0418
1.198	9.93909
1.192	9.86992
1.186	9.90275
1.18	9.81942
1.174	9.7367
1.168	9.72436
1.162	9.66481
1.156	9.68711
1.15	9.65121
1.144	9.63687
1.138	9.5595
1.132	9.53374
1.126	9.49981
1.12	9.49601
1.114	9.429
1.108	9.35793
1.102	9.35234
1.096	9.33654
1.09	9.22362
1.084	9.18936
1.078	9.23334
1.072	9.14889
1.066	9.0893
1.06	9.08463
1.054	8.98431
1.048	8.92731
1.042	8.85105
1.036	8.7797
1.03	8.75076
1.024	8.75247
1.018	8.65679
1.012	8.64331
1.006	8.50493
1	8.4106
0.994	8.35082
0.988	8.25324
0.982	8.2178
0.976	8.15169
0.97	8.06453
0.964	8.03337
0.958	7.93001
0.952	7.9342
0.946	7.72534
0.94	7.70596
0.934	7.59065
0.928	7.49031
0.922	7.38059
0.916	7.29855
0.91	7.21701
0.904	7.18313
0.898	7.11922
0.892	7.03113
0.886	6.90244
0.88	6.82434
0.874	6.75817
0.868	6.69396
0.862	6.54897
0.856	6.78158
0.85	6.71075
0.844	6.62468
0.838	6.54707
0.832	6.47204
0.826	6.38264
0.82	6.31918
0.814	6.24312
0.808	6.16657
0.802	6.09938
0.796	6.01935
0.79	5.94512
0.784	5.87963
0.778	5.81051
0.772	5.7397
0.766	5.67092
0.76	5.61596
0.754	5.55672
0.748	5.49531
0.742	5.4334
0.736	5.37622
0.73	5.31915
0.724	5.26673
0.718	5.21204
0.712	5.15684
0.706	5.1096
0.7	5.058
0.694	5.00989
0.688	4.96164
0.682	4.91484
0.676	4.87227
0.67	4.82969
0.664	4.78808
0.658	4.74428
0.652	4.70692
0.646	4.6658
0.64	4.62751
0.634	4.59403
0.628	4.55493
0.622	4.52199
0.616	4.48758
0.61	4.45507
0.604	4.42445
0.598	4.39717
0.592	4.37197
0.586	4.34309
0.58	4.31819
0.574	4.29387
0.568	4.27047
0.562	4.24958
0.556	4.23062
0.55	4.21237
0.544	4.19544
0.538	4.18496
0.532	4.17206
0.526	4.15599
0.52	4.14905
0.514	4.13872
0.508	4.13127
0.502	4.12969
0.496	4.12613
0.49	4.12405
0.484	4.12507
0.478	4.11719
0.472	4.11918
0.466	4.12398
0.46	4.12907
0.454	4.13507
0.448	4.14337
0.442	4.1528
0.436	4.15791
0.43	4.16983
0.424	4.18226
0.418	4.19732
0.412	4.22056
0.406	4.24249
0.4	4.271
