Name: Malachite Cu_2(CO_3)(OH)_2
Type: Mineral
Class: Carbonates
Particle Size: 0-45um
Sample No.: C-7A
Owner: JPL
Wavelength Range: VNIR-SWIR
Origin: USA, California, San Bernadino County, Near Valley Wells
Measurement: Hemispherical reflectance
X Units: Wavelength (micrometers)
Y Units: Reflectance (percent)
wavelength	value
0.4	33.04
0.403	36.23
0.406	38.17
0.409	39.96
0.412	41.68
0.415	43.16
0.418	44.57
0.421	45.92
0.424	46.93
0.427	48.06
0.43	48.99
0.433	50.13
0.436	50.83
0.439	51.8
0.442	52.76
0.445	53.64
0.448	54.53
0.451	55.5
0.454	56.36
0.457	57.4
0.46	58.01
0.463	59.59
0.466	60.47
0.469	61.57
0.472	62.48
0.475	63.39
0.478	64.18
0.481	65.08
0.484	65.78
0.487	66.63
0.49	67.38
0.493	67.8
0.496	68.41
0.499	68.92
0.502	69.44
0.505	69.81
0.508	70.14
0.511	70.39
0.514	70.55
0.517	70.79
0.52	70.86
0.523	70.97
0.526	70.54
0.529	70.37
0.532	70.07
0.535	69.56
0.538	69.17
0.541	68.54
0.544	67.8
0.547	67
0.55	66.24
0.553	65.29
0.556	64.26
0.559	63.43
0.562	62.23
0.565	60.96
0.568	59.74
0.571	58.45
0.574	56.93
0.577	55.62
0.58	54.19
0.583	52.92
0.586	51.64
0.589	50.27
0.592	48.98
0.595	47.75
0.598	46.48
0.601	45.35
0.604	44.29
0.607	42.97
0.61	41.87
0.613	40.76
0.616	39.74
0.619	38.76
0.622	37.72
0.625	36.82
0.628	35.89
0.631	35.17
0.634	34.28
0.637	33.56
0.64	32.83
0.643	32.11
0.646	31.45
0.649	30.87
0.652	30.36
0.655	29.63
0.658	29.12
0.661	28.81
0.664	28.21
0.667	27.8
0.67	27.29
0.673	26.96
0.676	26.65
0.679	26.27
0.682	25.94
0.685	25.52
0.688	25.35
0.691	25.02
0.694	24.75
0.697	24.54
0.7	24.26
0.703	23.91
0.706	23.68
0.709	23.55
0.712	23.27
0.715	23.16
0.718	22.91
0.721	22.72
0.724	22.56
0.727	22.42
0.73	22.36
0.733	22.11
0.736	22.04
0.739	21.97
0.742	21.84
0.745	21.75
0.748	21.7
0.751	21.64
0.754	21.52
0.757	21.5
0.76	21.55
0.763	21.41
0.766	21.4
0.769	21.42
0.772	21.55
0.775	21.35
0.778	21.43
0.781	21.33
0.784	21.27
0.787	21.3
0.79	21.25
0.793	21.23
0.796	21.33
0.799	21.3
0.808	21.67
0.82	21.79
0.832	21.99
0.844	22.19
0.856	22.56
0.868	23.15
0.88	23.7
0.892	24.42
0.904	25.39
0.916	26.38
0.928	27.51
0.94	28.64
0.952	29.87
0.964	31.06
0.976	32.27
0.988	33.5
1	34.45
1.012	35.61
1.024	36.52
1.036	37.29
1.048	37.93
1.06	38.47
1.072	38.84
1.084	39.07
1.096	39.29
1.108	39.29
1.12	39.49
1.132	39.43
1.144	39.45
1.156	39.44
1.168	39.59
1.18	39.64
1.192	39.71
1.204	39.9
1.216	40.06
1.228	40.2
1.24	40.5
1.252	40.74
1.264	41.13
1.276	41.4
1.288	41.71
1.3	42.04
1.312	42.42
1.324	42.86
1.336	43.29
1.348	43.69
1.36	44.17
1.372	44.55
1.384	44.64
1.396	44.26
1.408	43.52
1.42	44.03
1.432	44.8
1.444	45.45
1.456	46.11
1.468	46.77
1.48	47.69
1.492	48.64
1.504	49.6
1.516	50.39
1.528	51.23
1.54	51.98
1.552	52.86
1.564	53.67
1.576	54.39
1.588	55.16
1.6	55.92
1.612	56.72
1.624	57.61
1.636	58.39
1.648	59.2
1.66	59.81
1.672	60.66
1.684	61.28
1.696	61.84
1.708	62.41
1.72	62.99
1.732	63.36
1.744	63.81
1.756	64.2
1.768	64.51
1.78	64.93
1.792	65.4
1.804	65.83
1.816	66.16
1.828	66.3
1.84	66.31
1.852	66.03
1.864	64.59
1.876	60.69
1.888	54.61
1.9	48.42
1.912	46
1.924	46.33
1.936	47.19
1.948	48.53
1.96	49.99
1.972	51.61
1.984	53.28
1.996	54.96
2.008	56.33
2.02	57.75
2.032	58.92
2.044	60.2
2.056	61.16
2.068	62.2
2.08	62.97
2.092	63.64
2.104	64.3
2.116	65.02
2.128	65.36
2.14	65.49
2.152	65.24
2.164	64.76
2.176	64.08
2.188	62.83
2.2	61.08
2.212	59.58
2.224	58.54
2.236	57.08
2.248	54.93
2.26	53.02
2.272	52.81
2.284	53.83
2.296	55.39
2.308	56.2
2.32	56.17
2.332	54.85
2.344	52.98
2.356	51.71
2.368	51.03
2.38	50.25
2.392	49.28
2.404	48.63
2.416	48.07
2.428	47.67
2.44	47.38
2.452	46.95
2.464	46.42
2.476	45.94
2.488	45.52
2.5	45.15
