Name: Cryolite Na_3AlF_6
Type: Mineral
Class: Halides
Particle Size: 45-125um
Sample No.: H-1A
Owner: JPL
Wavelength Range: VNIR-SWIR
Origin: Denmark, Greenland, Ivigtut
Measurement: Hemispherical reflectance
X Units: Wavelength (micrometers)
Y Units: Reflectance (percent)
wavelength	value
0.4	89.24
0.403	89.26
0.406	89.38
0.409	89.33
0.412	89.38
0.415	89.38
0.418	89.39
0.421	89.5
0.424	89.46
0.427	89.57
0.43	89.64
0.433	89.57
0.436	89.69
0.439	89.8
0.442	89.76
0.445	89.93
0.448	89.81
0.451	89.94
0.454	90.07
0.457	89.94
0.46	90.06
0.463	90.07
0.466	90.08
0.469	90.34
0.472	90.34
0.475	90.47
0.478	90.36
0.481	90.29
0.484	90.43
0.487	90.56
0.49	90.63
0.493	90.48
0.496	90.44
0.499	90.58
0.502	90.7
0.505	90.53
0.508	90.65
0.511	90.75
0.514	90.65
0.517	90.76
0.52	90.72
0.523	90.95
0.526	90.84
0.529	90.78
0.532	90.89
0.535	90.72
0.538	90.89
0.541	90.83
0.544	90.84
0.547	90.86
0.55	91.05
0.553	90.94
0.556	90.87
0.559	90.89
0.562	91.29
0.565	91.42
0.568	91.3
0.571	91.18
0.574	90.96
0.577	90.92
0.58	91.09
0.583	90.98
0.586	90.91
0.589	90.97
0.592	90.91
0.595	90.92
0.598	91.17
0.601	91.05
0.604	91.07
0.607	91.19
0.61	91.03
0.613	91.19
0.616	91.02
0.619	90.96
0.622	91.08
0.625	91.02
0.628	91.14
0.631	91.08
0.634	90.97
0.637	91.07
0.64	91.08
0.643	91.14
0.646	91.02
0.649	90.96
0.652	91.13
0.655	91.08
0.658	91.19
0.661	91.14
0.664	91.07
0.667	91.08
0.67	91.08
0.673	91.2
0.676	91.07
0.679	91.03
0.682	91.14
0.685	91.14
0.688	91.25
0.691	91.14
0.694	91.08
0.697	91.19
0.7	91.14
0.703	91.14
0.706	91.08
0.709	91.31
0.712	91.09
0.715	91.09
0.718	91.07
0.721	91.09
0.724	91.14
0.727	91.03
0.73	91.03
0.733	90.97
0.736	91.03
0.739	91.02
0.742	91.03
0.745	91.15
0.748	90.97
0.751	91.09
0.754	91.03
0.757	91.08
0.76	90.98
0.763	91.03
0.766	91.08
0.769	90.92
0.772	91.03
0.775	91.03
0.778	90.98
0.781	91.15
0.784	91.03
0.787	91.1
0.79	90.98
0.793	91.09
0.796	91.09
0.799	90.95
0.808	91.18
0.82	91.12
0.832	91.24
0.844	91.23
0.856	91.34
0.868	91.34
0.88	91.4
0.892	91.47
0.904	91.29
0.916	91.28
0.928	91.29
0.94	91.34
0.952	91.34
0.964	91.4
0.976	91.34
0.988	91.41
1	91.43
1.012	91.58
1.024	91.52
1.036	91.52
1.048	91.41
1.06	91.47
1.072	91.48
1.084	91.52
1.096	91.48
1.108	91.53
1.12	91.58
1.132	91.61
1.144	91.66
1.156	91.65
1.168	91.5
1.18	91.48
1.192	91.44
1.204	91.43
1.216	91.44
1.228	91.34
1.24	91.42
1.252	91.49
1.264	91.59
1.276	91.56
1.288	91.55
1.3	91.46
1.312	91.44
1.324	91.31
1.336	91.22
1.348	91.2
1.36	91.26
1.372	91.25
1.384	91.1
1.396	91.02
1.408	90.82
1.42	90.7
1.432	90.68
1.444	90.59
1.456	90.49
1.468	90.78
1.48	90.95
1.492	90.95
1.504	91.1
1.516	91.17
1.528	91.29
1.54	91.23
1.552	91.41
1.564	91.41
1.576	91.35
1.588	91.23
1.6	91.35
1.612	91.45
1.624	91.38
1.636	91.4
1.648	91.49
1.66	91.6
1.672	91.68
1.684	91.66
1.696	91.7
1.708	91.62
1.72	91.68
1.732	91.63
1.744	91.58
1.756	91.46
1.768	91.46
1.78	91.4
1.792	91.35
1.804	91.38
1.816	91.35
1.828	91.31
1.84	91.27
1.852	91.21
1.864	91.19
1.876	90.86
1.888	90.46
1.9	89.65
1.912	88.69
1.924	88.05
1.936	88.33
1.948	88.95
1.96	89.56
1.972	90.14
1.984	90.6
1.996	90.76
2.008	90.88
2.02	91.03
2.032	91.11
2.044	91.14
2.056	91.24
2.068	91.35
2.08	91.58
2.092	91.63
2.104	91.8
2.116	91.97
2.128	91.85
2.14	91.81
2.152	91.54
2.164	91.3
2.176	91.18
2.188	91.12
2.2	91.16
2.212	90.96
2.224	90.98
2.236	91.04
2.248	91.06
2.26	91.19
2.272	91.17
2.284	91.12
2.296	90.99
2.308	90.88
2.32	90.76
2.332	90.32
2.344	89.94
2.356	89.78
2.368	89.38
2.38	89.2
2.392	88.94
2.404	88.94
2.416	88.98
2.428	89.01
2.44	88.87
2.452	88.69
2.464	88.66
2.476	88.64
2.488	89.34
2.5	89.87
