Name: Graphite C
Type: Mineral
Class: Elements
Particle Size: 125-500um
Sample No.: E-1A
Owner: JPL
Origin: Mexico, Sonora, Morelos, San Jose Mine.
Measurement: Hemispherical reflectance
X Units: Wavelength (micrometers)
Y Units: Reflectance (percent)
wavelength	value
2.5	6.28436
2.494	6.44017
2.488	6.52798
2.482	6.4391
2.476	6.43737
2.47	6.49426
2.464	6.52213
2.458	6.50207
2.452	6.30922
2.446	6.34521
2.44	6.38144
2.434	6.4168
2.428	6.3106
2.422	6.42793
2.416	6.38144
2.41	6.41094
2.404	6.351
2.398	6.36683
2.392	6.37119
2.386	6.33963
2.38	6.38623
2.374	6.41611
2.368	6.36544
2.362	6.37061
2.356	6.34002
2.35	6.32178
2.344	6.28347
2.338	6.26429
2.332	6.28404
2.326	6.35215
2.32	6.25774
2.314	6.31234
2.308	6.25812
2.302	6.24772
2.296	6.2798
2.29	6.23638
2.284	6.25476
2.278	6.20375
2.272	6.23404
2.266	6.23447
2.26	6.17764
2.254	6.12333
2.248	6.14283
2.242	6.19684
2.236	6.05936
2.23	6.13854
2.224	6.07667
2.218	6.10409
2.212	6.20535
2.206	6.03756
2.2	6.22221
2.194	6.1304
2.188	6.12847
2.182	6.07146
2.176	6.09387
2.17	6.09618
2.164	6.09965
2.158	6.19813
2.152	6.14994
2.146	6.11156
2.14	6.10612
2.134	6.15077
2.128	6.11616
2.122	5.99834
2.116	6.04099
2.11	6.07823
2.104	6.07256
2.098	6.01358
2.092	6.01772
2.086	6.02653
2.08	6.03359
2.074	6.03726
2.068	6.05271
2.062	5.96947
2.056	6.06424
2.05	6.00903
2.044	6.00958
2.038	6.01313
2.032	5.96763
2.026	6.00427
2.02	6.06267
2.014	6.04864
2.008	6.02929
2.002	5.98737
1.996	5.97838
1.99	6.01105
1.984	6.02825
1.978	5.96241
1.972	5.97188
1.966	6.01211
1.96	5.96387
1.954	5.86786
1.948	5.92939
1.942	5.95155
1.936	5.93709
1.93	6.02479
1.924	5.95503
1.918	5.95909
1.912	5.94255
1.906	5.94667
1.9	5.89614
1.894	5.94436
1.888	5.94121
1.882	5.88683
1.876	5.99086
1.87	5.85398
1.864	5.89826
1.858	5.82797
1.852	5.91783
1.846	5.8113
1.84	5.85436
1.834	5.87601
1.828	5.84205
1.822	5.8567
1.816	5.79036
1.81	5.79283
1.804	5.87849
1.798	5.81063
1.792	5.77513
1.786	5.83194
1.78	5.7634
1.774	5.78669
1.768	5.77333
1.762	5.75335
1.756	5.72257
1.75	5.72061
1.744	5.71212
1.738	5.71419
1.732	5.69435
1.726	5.71885
1.72	5.68487
1.714	5.67734
1.708	5.62278
1.702	5.66083
1.696	5.56464
1.69	5.63536
1.684	5.61262
1.678	5.60176
1.672	5.59964
1.666	5.60599
1.66	5.58674
1.654	5.56762
1.648	5.5105
1.642	5.61298
1.636	5.54836
1.63	5.54763
1.624	5.53777
1.618	5.5988
1.612	5.54978
1.606	5.48039
1.6	5.50277
1.594	5.53104
1.588	5.43915
1.582	5.51141
1.576	5.49713
1.57	5.49753
1.564	5.51905
1.558	5.46098
1.552	5.48325
1.546	5.59247
1.54	5.50121
1.534	5.4302
1.528	5.44117
1.522	5.423
1.516	5.46578
1.51	5.47704
1.504	5.39132
1.498	5.41275
1.492	5.48518
1.486	5.36716
1.48	5.40975
1.474	5.40941
1.468	5.4129
1.462	5.32573
1.456	5.43505
1.45	5.40474
1.444	5.3855
1.438	5.39788
1.432	5.39979
1.426	5.40047
1.42	5.39617
1.414	5.28646
1.408	5.35547
1.402	5.38893
1.396	5.33104
1.39	5.45133
1.384	5.3703
1.378	5.32789
1.372	5.27976
1.366	5.35761
1.36	5.39838
1.354	5.27753
1.348	5.17739
1.342	5.28878
1.336	5.24751
1.33	5.27101
1.324	5.22209
1.318	5.30237
1.312	5.15921
1.306	5.23456
1.3	5.18819
1.294	5.19946
1.288	5.1249
1.282	5.22995
1.276	5.1344
1.27	5.13464
1.264	5.14649
1.258	5.14845
1.252	5.11554
1.246	5.10035
1.24	5.0904
1.234	5.03025
1.228	5.08279
1.222	5.1117
1.216	5.07555
1.21	5.01398
1.204	4.98613
1.198	4.99168
1.192	4.97992
1.186	5.00716
1.18	4.92824
1.174	4.9772
1.168	4.97064
1.162	4.96281
1.156	4.89064
1.15	4.9069
1.144	4.84695
1.138	4.87833
1.132	4.89054
1.126	4.91957
1.12	4.87653
1.114	4.76154
1.108	4.81799
1.102	4.7454
1.096	4.78578
1.09	4.77361
1.084	4.68785
1.078	4.80233
1.072	4.74248
1.066	4.7882
1.06	4.68397
1.054	4.66419
1.048	4.66068
1.042	4.67342
1.036	4.71366
1.03	4.70231
1.024	4.67744
1.018	4.6584
1.012	4.68391
1.006	4.6745
1	4.62737
0.994	4.64608
0.988	4.6776
0.982	4.643
0.976	4.61497
0.97	4.68466
0.964	4.66842
0.958	4.63888
0.952	4.68168
0.946	4.5979
0.94	4.59309
0.934	4.58298
0.928	4.5976
0.922	4.58242
0.916	4.54279
0.91	4.53439
0.904	4.51705
0.898	4.53392
0.892	4.49482
0.886	4.49749
0.88	4.52237
0.874	4.44139
0.868	4.50558
0.862	4.49575
0.856	4.73381
0.85	4.72514
0.844	4.71962
0.838	4.70019
0.832	4.68648
0.826	4.6743
0.82	4.66464
0.814	4.64931
0.808	4.64259
0.802	4.63316
0.796	4.61856
0.79	4.61064
0.784	4.59922
0.778	4.5859
0.772	4.57656
0.766	4.56516
0.76	4.55983
0.754	4.55146
0.748	4.54062
0.742	4.53187
0.736	4.52792
0.73	4.51954
0.724	4.51254
0.718	4.50578
0.712	4.49152
0.706	4.48469
0.7	4.47689
0.694	4.47345
0.688	4.46997
0.682	4.46709
0.676	4.46389
0.67	4.46146
0.664	4.45625
0.658	4.45549
0.652	4.45308
0.646	4.45291
0.64	4.45248
0.634	4.45246
0.628	4.44948
0.622	4.45186
0.616	4.45181
0.61	4.45391
0.604	4.45642
0.598	4.45868
0.592	4.46547
0.586	4.4669
0.58	4.4725
0.574	4.47828
0.568	4.48243
0.562	4.48606
0.556	4.49837
0.55	4.5042
0.544	4.51363
0.538	4.52237
0.532	4.53227
0.526	4.54558
0.52	4.55635
0.514	4.56896
0.508	4.58962
0.502	4.60818
0.496	4.6333
0.49	4.65874
0.484	4.6857
0.478	4.69772
0.472	4.71988
0.466	4.74578
0.46	4.77692
0.454	4.81039
0.448	4.84332
0.442	4.88842
0.436	4.92716
0.43	4.97344
0.424	5.0227
0.418	5.08146
0.412	5.1387
0.406	5.20953
0.4	5.28752
