Name: Labradorite (Feldspar) (NaSi,CaAl)AlSi_2O_8
Type: Mineral
Class: Silicates
Subclass: Tectosilicates
Particle Size: 0-45um
Sample No.: TS-2A
Owner: JPL
Origin: Mexico, Sonora, Pinacate.
Measurement: Hemispherical reflectance
X Units: Wavelength (micrometers)
Y Units: Reflectance (percent)
wavelength	value
2.5	91.7016
2.494	91.6121
2.488	91.5729
2.482	91.6386
2.476	91.4764
2.47	91.6336
2.464	91.7019
2.458	91.7016
2.452	91.6484
2.446	91.6694
2.44	91.6344
2.434	91.6968
2.428	91.6715
2.422	91.6867
2.416	91.7468
2.41	91.7267
2.404	91.7055
2.398	91.7111
2.392	91.6534
2.386	91.7463
2.38	91.715
2.374	91.6578
2.368	91.6794
2.362	91.7029
2.356	91.6385
2.35	91.6395
2.344	91.6133
2.338	91.4352
2.332	91.5125
2.326	91.3639
2.32	91.3041
2.314	91.2344
2.308	91.1759
2.302	91.1134
2.296	91.0217
2.29	90.9848
2.284	90.9295
2.278	90.9441
2.272	90.8857
2.266	90.854
2.26	90.747
2.254	90.8068
2.248	90.7152
2.242	90.7701
2.236	90.7414
2.23	90.7088
2.224	90.6541
2.218	90.7052
2.212	90.7655
2.206	90.7613
2.2	90.9136
2.194	90.9512
2.188	91.0923
2.182	91.2153
2.176	91.2885
2.17	91.444
2.164	91.6106
2.158	91.7251
2.152	91.8173
2.146	91.9939
2.14	92.0203
2.134	92.0329
2.128	92.0112
2.122	91.9523
2.116	91.8732
2.11	91.8179
2.104	91.7554
2.098	91.635
2.092	91.647
2.086	91.5559
2.08	91.5307
2.074	91.4316
2.068	91.4156
2.062	91.4395
2.056	91.3372
2.05	91.2732
2.044	91.2752
2.038	91.1586
2.032	91.0858
2.026	91.0496
2.02	90.9539
2.014	90.8079
2.008	90.7529
2.002	90.6921
1.996	90.6148
1.99	90.4805
1.984	90.4871
1.978	90.4139
1.972	90.3366
1.966	90.274
1.96	90.258
1.954	90.225
1.948	90.0974
1.942	90.1058
1.936	90.0812
1.93	90.0324
1.924	90.0275
1.918	90.0546
1.912	90.0893
1.906	90.0595
1.9	90.1249
1.894	90.2199
1.888	90.2502
1.882	90.2557
1.876	90.3129
1.87	90.2646
1.864	90.3156
1.858	90.2949
1.852	90.292
1.846	90.2423
1.84	90.2214
1.834	90.2466
1.828	90.1713
1.822	90.1779
1.816	90.1381
1.81	90.1403
1.804	90.1208
1.798	90.0835
1.792	90.0723
1.786	90.1094
1.78	90.0862
1.774	90.0965
1.768	90.0016
1.762	89.9866
1.756	90.05
1.75	90.0465
1.744	90.338
1.738	90.0867
1.732	90.1045
1.726	90.1112
1.72	90.0787
1.714	90.1351
1.708	90.0956
1.702	90.0442
1.696	90.055
1.69	89.9796
1.684	90.0378
1.678	89.9884
1.672	89.9473
1.666	90.0023
1.66	89.9403
1.654	89.9469
1.648	89.8815
1.642	89.9234
1.636	89.8732
1.63	89.8107
1.624	89.8669
1.618	89.8441
1.612	89.907
1.606	89.8755
1.6	89.7966
1.594	89.8191
1.588	89.8101
1.582	89.7995
1.576	89.827
1.57	89.7267
1.564	89.6899
1.558	89.6927
1.552	89.7427
1.546	89.6735
1.54	89.6654
1.534	89.7009
1.528	89.6094
1.522	89.6625
1.516	89.5856
1.51	89.5498
1.504	89.5305
1.498	89.5471
1.492	89.5199
1.486	89.488
1.48	89.463
1.474	89.4682
1.468	89.4277
1.462	89.404
1.456	89.3366
1.45	89.3322
1.444	89.3746
1.438	89.3064
1.432	89.2449
1.426	89.2479
1.42	89.2375
1.414	89.2139
1.408	89.1766
1.402	89.2487
1.396	89.1808
1.39	89.19
1.384	89.1786
1.378	89.1602
1.372	89.0822
1.366	89.1513
1.36	89.1339
1.354	89.0979
1.348	89.0476
1.342	89.0489
1.336	89.0213
1.33	89.0069
1.324	88.9968
1.318	88.9751
1.312	88.9769
1.306	88.9538
1.3	88.9569
1.294	88.928
1.288	88.9489
1.282	88.9497
1.276	88.9657
1.27	88.9217
1.264	88.9503
1.258	88.9209
1.252	88.9439
1.246	88.966
1.24	89.0056
1.234	89.0316
1.228	88.9918
1.222	89.007
1.216	89.0282
1.21	88.9818
1.204	89.0423
1.198	89.07
1.192	89.0285
1.186	89.0603
1.18	89.1179
1.174	89.1224
1.168	89.1257
1.162	89.1776
1.156	89.2033
1.15	89.2345
1.144	89.2693
1.138	89.261
1.132	89.2958
1.126	89.3439
1.12	89.3619
1.114	89.4236
1.108	89.4113
1.102	89.4043
1.096	89.4714
1.09	89.5432
1.084	89.5871
1.078	89.5176
1.072	89.6467
1.066	89.6609
1.06	89.6776
1.054	89.7344
1.048	89.6988
1.042	89.7687
1.036	89.8256
1.03	89.8486
1.024	89.8816
1.018	89.9109
1.012	89.8768
1.006	90.0222
1	89.9926
0.994	90.0454
0.988	90.0915
0.982	90.1257
0.976	90.1381
0.97	90.132
0.964	90.1611
0.958	90.2119
0.952	90.2417
0.946	90.2397
0.94	90.3016
0.934	90.346
0.928	90.3176
0.922	90.3388
0.916	90.3296
0.91	90.3307
0.904	90.3966
0.898	90.3719
0.892	90.3245
0.886	90.4036
0.88	90.3898
0.874	90.4247
0.868	90.3734
0.862	90.4124
0.856	90.2206
0.85	90.2891
0.844	90.2614
0.838	90.2962
0.832	90.3182
0.826	90.3205
0.82	90.3245
0.814	90.3128
0.808	90.3516
0.802	90.33
0.796	90.3154
0.79	90.3546
0.784	90.3351
0.778	90.3085
0.772	90.318
0.766	90.3306
0.76	90.2898
0.754	90.3063
0.748	90.2865
0.742	90.2816
0.736	90.2699
0.73	90.2792
0.724	90.2675
0.718	90.2444
0.712	90.2309
0.706	90.2278
0.7	90.2129
0.694	90.2196
0.688	90.1812
0.682	90.1749
0.676	90.1676
0.67	90.1491
0.664	90.1339
0.658	90.1191
0.652	90.1005
0.646	90.0835
0.64	90.0624
0.634	90.0538
0.628	90.0273
0.622	90.0082
0.616	89.9851
0.61	89.9691
0.604	89.9356
0.598	89.9126
0.592	89.8779
0.586	89.8426
0.58	89.8003
0.574	89.7528
0.568	89.7116
0.562	89.6629
0.556	89.5746
0.55	89.5097
0.544	89.442
0.538	89.3683
0.532	89.3103
0.526	89.2265
0.52	89.1734
0.514	89.079
0.508	88.994
0.502	88.8919
0.496	88.7688
0.49	88.6541
0.484	88.5171
0.478	88.4498
0.472	88.3697
0.466	88.257
0.46	88.1098
0.454	87.9345
0.448	87.7634
0.442	87.6154
0.436	87.4654
0.43	87.3019
0.424	87.1142
0.418	86.9793
0.412	86.896
0.406	86.7814
0.4	86.5529
