Name: Cummingtonite (Mg,Fe^2+)_7Si_8O_22(OH)_2
Type: Mineral
Class: Silicates
Subclass: Inosilicates
Particle Size: 45-125um
Sample No.: IN-6A
Owner: JPL
Origin: USA, South Dakota.
Measurement: Hemispherical reflectance
X Units: Wavelength (micrometers)
Y Units: Reflectance (percent)
wavelength	value
2.5	7.19273
2.494	7.17176
2.488	7.05766
2.482	7.23138
2.476	7.21744
2.47	7.28096
2.464	7.41624
2.458	7.41849
2.452	7.45058
2.446	7.43642
2.44	7.37865
2.434	7.48665
2.428	7.48933
2.422	7.57915
2.416	7.61085
2.41	7.67609
2.404	7.70355
2.398	7.6431
2.392	7.68667
2.386	7.76013
2.38	7.73803
2.374	7.79071
2.368	7.7917
2.362	7.78845
2.356	7.81458
2.35	7.80678
2.344	7.71448
2.338	7.78545
2.332	7.81483
2.326	7.83103
2.32	7.89769
2.314	8.00649
2.308	8.08686
2.302	8.12101
2.296	8.20805
2.29	8.31213
2.284	8.33867
2.278	8.38427
2.272	8.39932
2.266	8.39297
2.26	8.47507
2.254	8.56173
2.248	8.52539
2.242	8.60499
2.236	8.7012
2.23	8.78882
2.224	8.85395
2.218	8.90562
2.212	9.00033
2.206	8.97958
2.2	8.94679
2.194	8.96346
2.188	9.09837
2.182	9.14037
2.176	9.19866
2.17	9.26332
2.164	9.2085
2.158	9.28504
2.152	9.35578
2.146	9.35638
2.14	9.41471
2.134	9.39812
2.128	9.38569
2.122	9.40342
2.116	9.39058
2.11	9.3744
2.104	9.31968
2.098	9.33765
2.092	9.38406
2.086	9.43574
2.08	9.4309
2.074	9.43964
2.068	9.46162
2.062	9.49368
2.056	9.4567
2.05	9.5518
2.044	9.52295
2.038	9.55815
2.032	9.54667
2.026	9.49136
2.02	9.49949
2.014	9.55083
2.008	9.54416
2.002	9.57281
1.996	9.63357
1.99	9.61272
1.984	9.65263
1.978	9.55396
1.972	9.57043
1.966	9.6498
1.96	9.55884
1.954	9.54359
1.948	9.60503
1.942	9.66477
1.936	9.61519
1.93	9.6253
1.924	9.64443
1.918	9.68079
1.912	9.63604
1.906	9.67473
1.9	9.71862
1.894	9.67079
1.888	9.70477
1.882	9.71024
1.876	9.65536
1.87	9.74895
1.864	9.72766
1.858	9.60005
1.852	9.7815
1.846	9.66168
1.84	9.73843
1.834	9.70182
1.828	9.70698
1.822	9.70223
1.816	9.67357
1.81	9.68972
1.804	9.68017
1.798	9.6908
1.792	9.61721
1.786	9.62972
1.78	9.61646
1.774	9.59185
1.768	9.68091
1.762	9.65771
1.756	9.61838
1.75	9.5976
1.744	9.60234
1.738	9.54601
1.732	9.58527
1.726	9.54465
1.72	9.57689
1.714	9.5472
1.708	9.60428
1.702	9.52365
1.696	9.50469
1.69	9.48802
1.684	9.53903
1.678	9.5322
1.672	9.52781
1.666	9.50904
1.66	9.49704
1.654	9.38716
1.648	9.49964
1.642	9.52324
1.636	9.44469
1.63	9.43239
1.624	9.35064
1.618	9.31932
1.612	9.34296
1.606	9.35631
1.6	9.31268
1.594	9.30723
1.588	9.27124
1.582	9.27161
1.576	9.3069
1.57	9.2064
1.564	9.19579
1.558	9.21277
1.552	9.20212
1.546	9.10938
1.54	9.15248
1.534	9.08977
1.528	9.03963
1.522	9.05073
1.516	9.01667
1.51	8.98967
1.504	8.91613
1.498	8.90275
1.492	8.91039
1.486	8.90245
1.48	8.81607
1.474	8.8567
1.468	8.77286
1.462	8.73085
1.456	8.74832
1.45	8.63885
1.444	8.65318
1.438	8.66246
1.432	8.55453
1.426	8.48043
1.42	8.43087
1.414	8.24188
1.408	8.00521
1.402	8.28892
1.396	8.32445
1.39	8.35121
1.384	8.28527
1.378	8.27055
1.372	8.09078
1.366	8.1529
1.36	8.13727
1.354	8.07878
1.348	7.96841
1.342	8.02239
1.336	7.96445
1.33	7.94718
1.324	7.80483
1.318	7.85545
1.312	7.83517
1.306	7.76
1.3	7.72769
1.294	7.63128
1.288	7.52257
1.282	7.58505
1.276	7.52098
1.27	7.47507
1.264	7.41739
1.258	7.34959
1.252	7.32026
1.246	7.31336
1.24	7.27145
1.234	7.20198
1.228	7.14239
1.222	7.13145
1.216	7.09017
1.21	7.06403
1.204	7.06123
1.198	7.06309
1.192	7.02161
1.186	6.98158
1.18	6.92398
1.174	6.92236
1.168	6.93126
1.162	6.88791
1.156	6.90182
1.15	6.82632
1.144	6.79374
1.138	6.7659
1.132	6.86733
1.126	6.73581
1.12	6.62601
1.114	6.71647
1.108	6.63583
1.102	6.57503
1.096	6.4656
1.09	6.39715
1.084	6.33261
1.078	6.17537
1.072	6.08059
1.066	5.94541
1.06	5.83531
1.054	5.59727
1.048	5.47907
1.042	5.37847
1.036	5.25051
1.03	5.15555
1.024	4.97993
1.018	4.94755
1.012	4.88588
1.006	4.77634
1	4.74909
0.994	4.70907
0.988	4.70405
0.982	4.72504
0.976	4.63225
0.97	4.66119
0.964	4.67232
0.958	4.6906
0.952	4.65755
0.946	4.67353
0.94	4.72215
0.934	4.79739
0.928	4.8914
0.922	4.8259
0.916	4.91248
0.91	5.03129
0.904	5.10413
0.898	5.17329
0.892	5.27398
0.886	5.32835
0.88	5.50824
0.874	5.66455
0.868	5.77154
0.862	5.96528
0.856	6.55991
0.85	6.69806
0.844	6.82115
0.838	6.93605
0.832	7.05335
0.826	7.14384
0.82	7.24141
0.814	7.32256
0.808	7.38939
0.802	7.44826
0.796	7.48621
0.79	7.51029
0.784	7.53033
0.778	7.54
0.772	7.55152
0.766	7.55309
0.76	7.55474
0.754	7.54896
0.748	7.55187
0.742	7.55156
0.736	7.54581
0.73	7.55222
0.724	7.55815
0.718	7.56316
0.712	7.57441
0.706	7.58543
0.7	7.59901
0.694	7.61739
0.688	7.64076
0.682	7.66423
0.676	7.69418
0.67	7.71737
0.664	7.74675
0.658	7.77926
0.652	7.81406
0.646	7.84496
0.64	7.87727
0.634	7.90491
0.628	7.93672
0.622	7.96268
0.616	7.99025
0.61	8.02063
0.604	8.04537
0.598	8.07554
0.592	8.1
0.586	8.10968
0.58	8.11468
0.574	8.11122
0.568	8.09234
0.562	8.04467
0.556	7.97195
0.55	7.92733
0.544	7.95206
0.538	7.94248
0.532	7.87915
0.526	7.80132
0.52	7.69592
0.514	7.52376
0.508	7.43034
0.502	7.46202
0.496	7.39868
0.49	7.30228
0.484	7.24448
0.478	7.1256
0.472	7.07032
0.466	7.01954
0.46	6.94992
0.454	6.87836
0.448	6.80588
0.442	6.7087
0.436	6.61086
0.43	6.53863
0.424	6.44384
0.418	6.35685
0.412	6.285
0.406	6.20334
0.4	6.09183
