Name: Howlite Ca_2B_5SiO_9(OH)_5
Type: Mineral
Class: Borates
Particle Size: 125-500um
Sample No.: B-5A
Owner: JPL
Wavelength Range: VNIR-SWIR
Origin: USA, California, San Gabriel Mountains, Tick Canyon
Measurement: Hemispherical reflectance
X Units: Wavelength (micrometers)
Y Units: Reflectance (percent)
wavelength	value
0.4	78.24
0.403	78.83
0.406	78.95
0.409	80.19
0.412	80.49
0.415	80.72
0.418	81.26
0.421	81.44
0.424	81.9
0.427	82.38
0.43	82.56
0.433	82.92
0.436	83.56
0.439	83.74
0.442	84.04
0.445	84.62
0.448	84.56
0.451	85.34
0.454	85.47
0.457	85.41
0.46	85.89
0.463	86.43
0.466	85.84
0.469	87.03
0.472	86.73
0.475	86.92
0.478	87.34
0.481	87.52
0.484	88.06
0.487	88.3
0.49	88.01
0.493	88.9
0.496	88.9
0.499	88.57
0.502	89.45
0.505	89.45
0.508	89.39
0.511	89.69
0.514	89.51
0.517	89.75
0.52	90.16
0.523	90.16
0.526	90.22
0.529	90.33
0.532	90.75
0.535	90.87
0.538	91.05
0.541	91.05
0.544	91.34
0.547	90.81
0.55	91.52
0.553	90.87
0.556	91.05
0.559	91.17
0.562	91.82
0.565	91.94
0.568	91.82
0.571	91.88
0.574	91.94
0.577	91.88
0.58	92.41
0.583	91.94
0.586	92.17
0.589	92.23
0.592	91.64
0.595	92.17
0.598	91.7
0.601	92.29
0.604	92.53
0.607	92.41
0.61	93.06
0.613	93.24
0.616	93.18
0.619	93.06
0.622	93
0.625	92.88
0.628	93.06
0.631	92.94
0.634	93.18
0.637	92.94
0.64	92.59
0.643	93.42
0.646	92.88
0.649	93.3
0.652	93.24
0.655	93.12
0.658	93.36
0.661	93.24
0.664	93.18
0.667	93.54
0.67	93.18
0.673	93.48
0.676	93.12
0.679	93.18
0.682	93.54
0.685	93.12
0.688	93.42
0.691	93.48
0.694	93.42
0.697	93.65
0.7	93.36
0.703	93.24
0.706	93.54
0.709	93.42
0.712	93.18
0.715	93.3
0.718	92.88
0.721	93.18
0.724	93
0.727	93
0.73	92.88
0.733	92.76
0.736	93
0.739	93
0.742	92.82
0.745	92.88
0.748	92.35
0.751	92.59
0.754	92.17
0.757	92.7
0.76	92.65
0.763	92.23
0.766	92.82
0.769	92.47
0.772	92.82
0.775	93.06
0.778	92.76
0.781	92.82
0.784	92.94
0.787	92.65
0.79	92.7
0.793	92.23
0.796	92.65
0.799	92.47
0.808	92.35
0.82	92.23
0.832	92.35
0.844	92.29
0.856	92.23
0.868	92.29
0.88	92.05
0.892	91.94
0.904	91.94
0.916	91.82
0.928	91.23
0.94	90.63
0.952	89.75
0.964	88.85
0.976	86.97
0.988	87.2
1	89.81
1.012	90.75
1.024	90.99
1.036	91.29
1.048	91.34
1.06	91.58
1.072	91.46
1.084	91.52
1.096	91.29
1.108	91.34
1.12	91.52
1.132	91.58
1.144	91.34
1.156	91.22
1.168	91.13
1.18	90.82
1.192	90.32
1.204	89.72
1.216	88.65
1.228	86.46
1.24	85.4
1.252	85.46
1.264	86.32
1.276	86.54
1.288	86.87
1.3	86.25
1.312	84.46
1.324	80.9
1.336	74.98
1.348	76.08
1.36	77.96
1.372	75.9
1.384	71.29
1.396	64.16
1.408	58.08
1.42	54.2
1.432	44.46
1.444	41.05
1.456	54.35
1.468	54.29
1.48	55.59
1.492	56.36
1.504	55.23
1.516	53.82
1.528	57.77
1.54	61.67
1.552	62.21
1.564	61.5
1.576	60.09
1.588	58.25
1.6	56.53
1.612	55.46
1.624	54.62
1.636	54.25
1.648	54.36
1.66	54.88
1.672	55.51
1.684	56.26
1.696	56.96
1.708	57.66
1.72	58.19
1.732	59.13
1.744	60.02
1.756	60.61
1.768	61.08
1.78	61.61
1.792	61.9
1.804	61.95
1.816	62
1.828	62.36
1.84	62.3
1.852	62.13
1.864	61.64
1.876	61.1
1.888	60.49
1.9	60.12
1.912	59.47
1.924	58.75
1.936	58.15
1.948	57.37
1.96	56.69
1.972	55.89
1.984	54.44
1.996	52.47
2.008	50.8
2.02	48.98
2.032	48
2.044	48.04
2.056	45.87
2.068	40.02
2.08	32.52
2.092	26.19
2.104	21.72
2.116	18.13
2.128	16.42
2.14	16.53
2.152	16.32
2.164	16.55
2.176	18.57
2.188	20.78
2.2	21.93
2.212	21.82
2.224	20.67
2.236	19.84
2.248	20.48
2.26	22.32
2.272	23.94
2.284	24.61
2.296	24.97
2.308	25.45
2.32	27.27
2.332	28.18
2.344	27.94
2.356	26.94
2.368	25.64
2.38	23.56
2.392	20.57
2.404	17.18
2.416	13.92
2.428	11.51
2.44	9.9
2.452	9.21
2.464	9.66
2.476	10.98
2.488	12.69
2.5	14.46
