Name: Illite (K,H_3O)(Al,Mg,Fe)_2(Si,Al)_4O_10((OH)_2,H_2O)
Type: Mineral
Class: Silicates
Subclass: Phyllosilicates
Particle Size: 0-45um
Sample No.: PS-11A
Owner: JPL
Wavelength Range: VNIR-SWIR
Origin: USA, Wisconsin, Marblehead
Measurement: Hemispherical reflectance
X Units: Wavelength (micrometers)
Y Units: Reflectance (percent)
wavelength	value
0.4	22.26
0.403	22.64
0.406	23
0.409	23.36
0.412	23.75
0.415	24.06
0.418	24.32
0.421	24.64
0.424	24.94
0.427	25.35
0.43	25.8
0.433	26.13
0.436	26.41
0.439	26.75
0.442	26.98
0.445	27.39
0.448	27.74
0.451	27.9
0.454	28.27
0.457	28.38
0.46	28.6
0.463	28.91
0.466	29.18
0.469	29.3
0.472	29.41
0.475	29.93
0.478	30.04
0.481	30.31
0.484	30.64
0.487	30.81
0.49	30.8
0.493	31.26
0.496	31.48
0.499	31.83
0.502	32.02
0.505	32.36
0.508	32.42
0.511	32.66
0.514	33.15
0.517	33.34
0.52	33.63
0.523	33.78
0.526	34.09
0.529	34.14
0.532	34.45
0.535	34.88
0.538	34.93
0.541	35.18
0.544	35.37
0.547	35.66
0.55	35.74
0.553	36.02
0.556	36.32
0.559	36.49
0.562	36.81
0.565	37.2
0.568	37.24
0.571	37.34
0.574	37.58
0.577	37.59
0.58	37.86
0.583	37.95
0.586	38.36
0.589	38.46
0.592	38.51
0.595	38.59
0.598	38.93
0.601	39.22
0.604	39.33
0.607	39.67
0.61	39.8
0.613	39.88
0.616	39.94
0.619	40.26
0.622	40.42
0.625	40.61
0.628	40.76
0.631	40.97
0.634	41.08
0.637	41.19
0.64	41.35
0.643	41.68
0.646	41.74
0.649	42.06
0.652	42.38
0.655	42.3
0.658	42.45
0.661	42.7
0.664	42.87
0.667	42.95
0.67	43.29
0.673	43.51
0.676	43.56
0.679	43.71
0.682	43.98
0.685	44.11
0.688	44.22
0.691	44.57
0.694	44.76
0.697	44.71
0.7	44.92
0.703	45.14
0.706	45.24
0.709	45.5
0.712	45.52
0.715	45.89
0.718	46.06
0.721	46.12
0.724	46.18
0.727	46.35
0.73	46.53
0.733	46.67
0.736	46.99
0.739	47.3
0.742	47.24
0.745	47.38
0.748	47.47
0.751	47.73
0.754	47.73
0.757	48.14
0.76	48.31
0.763	48.31
0.766	48.48
0.769	48.56
0.772	48.68
0.775	48.85
0.778	49.13
0.781	49.39
0.784	49.51
0.787	49.62
0.79	49.65
0.793	49.76
0.796	50.05
0.799	50.25
0.808	51.35
0.82	51.99
0.832	52.54
0.844	53.12
0.856	53.75
0.868	54.22
0.88	54.73
0.892	55.2
0.904	55.77
0.916	56.19
0.928	56.69
0.94	57.23
0.952	57.66
0.964	58.25
0.976	58.61
0.988	59.12
1	59.35
1.012	59.96
1.024	60.37
1.036	60.77
1.048	61.16
1.06	61.55
1.072	62.02
1.084	62.29
1.096	62.8
1.108	63.09
1.12	63.58
1.132	63.88
1.144	64.2
1.156	64.54
1.168	64.92
1.18	65.27
1.192	65.57
1.204	65.99
1.216	66.29
1.228	66.61
1.24	66.91
1.252	67.29
1.264	67.66
1.276	67.91
1.288	68.3
1.3	68.4
1.312	68.72
1.324	69.01
1.336	69.21
1.348	69.49
1.36	69.62
1.372	69.64
1.384	69.17
1.396	67.62
1.408	65.77
1.42	66.95
1.432	69.07
1.444	70.09
1.456	70.49
1.468	70.88
1.48	71.43
1.492	71.81
1.504	72.18
1.516	72.47
1.528	72.76
1.54	73.02
1.552	73.26
1.564	73.52
1.576	73.78
1.588	73.94
1.6	74.14
1.612	74.39
1.624	74.57
1.636	74.76
1.648	74.95
1.66	75.12
1.672	75.28
1.684	75.47
1.696	75.58
1.708	75.77
1.72	75.84
1.732	75.86
1.744	75.9
1.756	75.98
1.768	76.02
1.78	76.13
1.792	76.15
1.804	76.32
1.816	76.3
1.828	76.35
1.84	76.25
1.852	75.99
1.864	75.14
1.876	73.11
1.888	70.13
1.9	66.85
1.912	66.34
1.924	67.73
1.936	68.97
1.948	69.74
1.96	70.43
1.972	71.21
1.984	71.99
1.996	72.79
2.008	73.47
2.02	74.24
2.032	74.64
2.044	74.95
2.056	75.24
2.068	75.4
2.08	75.43
2.092	75.47
2.104	75.46
2.116	75.49
2.128	75.54
2.14	75.49
2.152	74.87
2.164	73.96
2.176	72.22
2.188	69.88
2.2	67.43
2.212	65.71
2.224	66.04
2.236	67.21
2.248	68.84
2.26	70.7
2.272	72
2.284	72.18
2.296	71.31
2.308	69.45
2.32	67.63
2.332	66.27
2.344	65.97
2.356	66.35
2.368	66.72
2.38	66.72
2.392	66.24
2.404	65.54
2.416	64.65
2.428	63.59
2.44	62.89
2.452	62.55
2.464	62.39
2.476	62.32
2.488	62.44
2.5	62.43
