Name: Borax Na_2B_4O_5(OH)_4.8H_2O
Type: Mineral
Class: Borates
Particle Size: 125-500um
Sample No.: B-6A
Owner: JPL
Wavelength Range: VNIR-SWIR
Origin: USA, California, Kern County, Boron
Measurement: Hemispherical reflectance
X Units: Wavelength (micrometers)
Y Units: Reflectance (percent)
wavelength	value
0.4	90.67
0.403	90.88
0.406	90.71
0.409	90.82
0.412	90.95
0.415	90.83
0.418	90.94
0.421	90.89
0.424	90.95
0.427	91.14
0.43	91.07
0.433	91.14
0.436	91.32
0.439	91.25
0.442	91.38
0.445	91.44
0.448	91.44
0.451	91.44
0.454	91.39
0.457	91.48
0.46	91.66
0.463	91.77
0.466	91.88
0.469	91.83
0.472	91.89
0.475	91.84
0.478	91.86
0.481	91.97
0.484	92.11
0.487	92.11
0.49	91.95
0.493	91.97
0.496	91.98
0.499	92.16
0.502	91.99
0.505	92.17
0.508	92.05
0.511	92.23
0.514	92.41
0.517	92.41
0.52	92.47
0.523	92.41
0.526	92.29
0.529	92.35
0.532	92.41
0.535	92.38
0.538	92.44
0.541	92.31
0.544	92.38
0.547	92.39
0.55	92.46
0.553	92.46
0.556	92.4
0.559	92.27
0.562	92.71
0.565	92.7
0.568	92.7
0.571	92.59
0.574	92.4
0.577	92.37
0.58	92.42
0.583	92.42
0.586	92.3
0.589	92.36
0.592	92.3
0.595	92.3
0.598	92.55
0.601	92.28
0.604	92.35
0.607	92.42
0.61	92.3
0.613	92.3
0.616	92.36
0.619	92.3
0.622	92.19
0.625	92.31
0.628	92.3
0.631	92.41
0.634	92.19
0.637	92.24
0.64	92.19
0.643	92.13
0.646	92.36
0.649	92.25
0.652	92.36
0.655	92.3
0.658	92.3
0.661	92.42
0.664	92.13
0.667	92.36
0.67	92.36
0.673	92.48
0.676	92.25
0.679	92.3
0.682	92.3
0.685	92.14
0.688	92.31
0.691	92.36
0.694	92.42
0.697	92.18
0.7	92.09
0.703	92.19
0.706	92.07
0.709	92.08
0.712	92.19
0.715	92.13
0.718	92.19
0.721	92.01
0.724	91.91
0.727	91.96
0.73	91.74
0.733	91.67
0.736	91.45
0.739	91.33
0.742	91.33
0.745	91.11
0.748	91.05
0.751	90.93
0.754	91.04
0.757	90.93
0.76	91.1
0.763	90.94
0.766	90.93
0.769	90.99
0.772	90.99
0.775	91.16
0.778	91.05
0.781	91.28
0.784	91.23
0.787	91.28
0.79	91.34
0.793	91.51
0.796	91.56
0.799	91.3
0.808	91.27
0.82	91.33
0.832	91.06
0.844	90.59
0.856	90.47
0.868	90.46
0.88	90.23
0.892	89.86
0.904	89.56
0.916	89.15
0.928	88.37
0.94	86.93
0.952	84.25
0.964	80.55
0.976	79.18
0.988	79.41
1	80.41
1.012	82.31
1.024	83.71
1.036	85.06
1.048	85.95
1.06	86.56
1.072	86.7
1.084	86.26
1.096	85.41
1.108	84.81
1.12	84.05
1.132	82.39
1.144	77.42
1.156	71.47
1.168	68.83
1.18	69.17
1.192	69.06
1.204	68.92
1.216	69.3
1.228	69.34
1.24	69.47
1.252	69.66
1.264	70.18
1.276	70.57
1.288	70.21
1.3	68.82
1.312	65.84
1.324	61.8
1.336	58.43
1.348	56.95
1.36	56.1
1.372	54.43
1.384	49.63
1.396	40.08
1.408	28.76
1.42	23
1.432	22.35
1.444	22.03
1.456	22.35
1.468	22.53
1.48	22.96
1.492	25.56
1.504	28.24
1.516	30.12
1.528	31.66
1.54	32.66
1.552	33.16
1.564	33.47
1.576	33.61
1.588	33.7
1.6	33.58
1.612	33.56
1.624	33.29
1.636	33.08
1.648	32.7
1.66	32.58
1.672	32.56
1.684	32.37
1.696	31.95
1.708	31.42
1.72	30.76
1.732	30.22
1.744	29.53
1.756	28.59
1.768	27.7
1.78	27.66
1.792	28.22
1.804	28.67
1.816	29.22
1.828	29.41
1.84	28.86
1.852	27.45
1.864	24.44
1.876	19.53
1.888	14.12
1.9	9.13
1.912	6.23
1.924	5.47
1.936	5.82
1.948	6.4
1.96	6.95
1.972	7.64
1.984	8.56
1.996	9.4
2.008	10.27
2.02	11.13
2.032	11.67
2.044	12.07
2.056	12.21
2.068	12.36
2.08	12.41
2.092	12.35
2.104	12.1
2.116	11.67
2.128	10.94
2.14	10.69
2.152	11.24
2.164	12.32
2.176	13.23
2.188	13.61
2.2	13.8
2.212	13.79
2.224	13.62
2.236	13.2
2.248	12.82
2.26	12.8
2.272	12.91
2.284	13.01
2.296	13.12
2.308	13.18
2.32	13.14
2.332	12.85
2.344	12.39
2.356	11.51
2.368	10.56
2.38	9.35
2.392	8.29
2.404	7.32
2.416	6.4
2.428	5.8
2.44	5.4
2.452	5.19
2.464	5.02
2.476	4.7
2.488	4.52
2.5	4.37
