Name: Grossular Garnet Ca_3Al_2(SiO_4)_3
Type: Mineral
Class: Silicates
Subclass: Nesosilicates
Particle Size: 0-45um
Sample No.: NS-3B
Owner: JPL
Wavelength Range: VNIR-SWIR
Origin: Mexico, Lake Jaco
Measurement: Hemispherical reflectance
X Units: Wavelength (micrometers)
Y Units: Reflectance (percent)
wavelength	value
0.4	72.16
0.403	72.56
0.406	72.71
0.409	73
0.412	73.3
0.415	73.47
0.418	73.65
0.421	73.82
0.424	73.7
0.427	73.39
0.43	73.45
0.433	73.69
0.436	73.99
0.439	74.48
0.442	75.37
0.445	75.79
0.448	75.94
0.451	76.26
0.454	76.5
0.457	76.67
0.46	76.91
0.463	77.07
0.466	77.3
0.469	77.53
0.472	77.64
0.475	77.79
0.478	77.89
0.481	77.96
0.484	78.04
0.487	78.15
0.49	78.2
0.493	78.3
0.496	78.38
0.499	78.33
0.502	78.45
0.505	78.58
0.508	78.74
0.511	78.82
0.514	78.95
0.517	78.98
0.52	79.08
0.523	79.12
0.526	79.1
0.529	79.24
0.532	79.32
0.535	79.23
0.538	79.33
0.541	79.36
0.544	79.37
0.547	79.45
0.55	79.46
0.553	79.62
0.556	79.65
0.559	79.75
0.562	80.16
0.565	80.03
0.568	80.04
0.571	80.07
0.574	79.96
0.577	79.99
0.58	79.88
0.583	80
0.586	79.94
0.589	80.21
0.592	80.25
0.595	80.28
0.598	80.34
0.601	80.45
0.604	80.51
0.607	80.64
0.61	80.75
0.613	80.86
0.616	80.86
0.619	80.84
0.622	81.05
0.625	80.84
0.628	80.96
0.631	81.08
0.634	81.1
0.637	81.11
0.64	81.01
0.643	81.21
0.646	81.17
0.649	81.32
0.652	81.32
0.655	81.46
0.658	81.45
0.661	81.61
0.664	81.46
0.667	81.68
0.67	81.68
0.673	81.71
0.676	81.73
0.679	81.74
0.682	81.79
0.685	81.78
0.688	81.97
0.691	81.99
0.694	81.96
0.697	81.98
0.7	81.89
0.703	82.03
0.706	82.01
0.709	82.31
0.712	82.06
0.715	82.15
0.718	82.19
0.721	82.23
0.724	82.16
0.727	82.2
0.73	82.22
0.733	82.25
0.736	82.25
0.739	82.24
0.742	82.42
0.745	82.22
0.748	82.24
0.751	82.42
0.754	82.23
0.757	82.33
0.76	82.31
0.763	82.32
0.766	82.31
0.769	82.28
0.772	82.42
0.775	82.24
0.778	82.32
0.781	82.31
0.784	82.42
0.787	82.27
0.79	82.21
0.793	82.35
0.796	82.44
0.799	82.34
0.808	82.43
0.82	82.39
0.832	82.19
0.844	82.29
0.856	82.22
0.868	82.18
0.88	82.17
0.892	82.19
0.904	82.2
0.916	82.34
0.928	82.34
0.94	82.49
0.952	82.64
0.964	82.72
0.976	82.79
0.988	82.89
1	82.99
1.012	83.02
1.024	83.13
1.036	83.17
1.048	83.21
1.06	83.22
1.072	83.2
1.084	83.25
1.096	83.19
1.108	83.35
1.12	83.29
1.132	83.35
1.144	83.25
1.156	83.26
1.168	83.12
1.18	83.19
1.192	83.13
1.204	83.25
1.216	83.04
1.228	83.18
1.24	83.13
1.252	83.02
1.264	83.14
1.276	83.08
1.288	83.11
1.3	83.04
1.312	82.96
1.324	83.07
1.336	82.96
1.348	83
1.36	82.86
1.372	82.94
1.384	82.76
1.396	82.8
1.408	82.79
1.42	82.71
1.432	82.9
1.444	82.9
1.456	82.92
1.468	82.92
1.48	82.93
1.492	82.92
1.504	82.94
1.516	83
1.528	82.93
1.54	82.95
1.552	83
1.564	82.93
1.576	82.97
1.588	82.98
1.6	82.93
1.612	82.93
1.624	83.03
1.636	82.88
1.648	83.05
1.66	83.05
1.672	83.02
1.684	82.99
1.696	82.92
1.708	82.95
1.72	82.99
1.732	82.83
1.744	82.89
1.756	82.79
1.768	82.82
1.78	82.68
1.792	82.85
1.804	82.68
1.816	82.68
1.828	82.69
1.84	82.56
1.852	82.58
1.864	82.51
1.876	82.41
1.888	82.26
1.9	82.03
1.912	81.89
1.924	81.85
1.936	81.81
1.948	81.94
1.96	81.92
1.972	81.97
1.984	82.12
1.996	82.26
2.008	82.3
2.02	82.55
2.032	82.59
2.044	82.65
2.056	82.48
2.068	82.51
2.08	82.77
2.092	82.64
2.104	82.8
2.116	82.98
2.128	82.83
2.14	82.74
2.152	82.49
2.164	82.35
2.176	82.25
2.188	81.96
2.2	81.92
2.212	81.73
2.224	81.74
2.236	81.78
2.248	81.71
2.26	81.6
2.272	81.65
2.284	81.47
2.296	81.4
2.308	81.39
2.32	81.54
2.332	81.58
2.344	81.56
2.356	81.53
2.368	81.42
2.38	81.38
2.392	81.4
2.404	81.25
2.416	81.32
2.428	81.29
2.44	81.12
2.452	81.09
2.464	80.86
2.476	80.88
2.488	81.04
2.5	81.33
