Name: Lepidolite K(Li,Al)3(Si,Al)_4O_10(F,OH)_2
Type: Mineral
Class: Silicates
Subclass: Phyllosilicates
Particle Size: 45-125um
Sample No.: PS-13B
Owner: JPL
Wavelength Range: VNIR-SWIR
Origin: South Africa
Description: Lavender lepidolite.
Measurement: Hemispherical reflectance
X Units: Wavelength (micrometers)
Y Units: Reflectance (percent)
wavelength	value
0.4	59.48
0.403	59.2
0.406	59.48
0.409	59.43
0.412	59.2
0.415	59.48
0.418	59.08
0.421	59.37
0.424	59.43
0.427	59.2
0.43	59.48
0.433	59.08
0.436	59.14
0.439	59.48
0.442	58.97
0.445	59.43
0.448	59.2
0.451	59.02
0.454	59.49
0.457	59.03
0.46	59.26
0.463	59.27
0.466	58.87
0.469	59.05
0.472	58.88
0.475	58.66
0.478	59.01
0.481	58.6
0.484	58.44
0.487	58.67
0.49	58.05
0.493	58.28
0.496	57.77
0.499	57.6
0.502	57.6
0.505	56.98
0.508	56.98
0.511	56.4
0.514	55.89
0.517	55.83
0.52	55.09
0.523	55.04
0.526	54.35
0.529	54
0.532	53.94
0.535	53.21
0.538	52.92
0.541	52.86
0.544	52.29
0.547	52.35
0.55	52.07
0.553	52.07
0.556	52.01
0.559	51.84
0.562	52.07
0.565	52.29
0.568	52.01
0.571	52.46
0.574	52.35
0.577	52.69
0.58	53.21
0.583	53.32
0.586	54.06
0.589	54.23
0.592	54.86
0.595	55.49
0.598	55.66
0.601	56.69
0.604	57.09
0.607	57.66
0.61	58.4
0.613	58.75
0.616	59.54
0.619	59.89
0.622	60.35
0.625	61.2
0.628	61.37
0.631	62.12
0.634	62.62
0.637	62.62
0.64	63.31
0.643	63.49
0.646	63.82
0.649	64.17
0.652	64.11
0.655	64.51
0.658	64.74
0.661	64.57
0.664	65.03
0.667	64.85
0.67	65.03
0.673	65.2
0.676	64.85
0.679	65.2
0.682	65.03
0.685	64.68
0.688	65.08
0.691	64.63
0.694	64.85
0.697	65.03
0.7	64.74
0.703	64.63
0.706	64.57
0.709	64.28
0.712	64.68
0.715	64.51
0.718	64.34
0.721	64.57
0.724	64.28
0.727	64.45
0.73	64.28
0.733	63.99
0.736	64.4
0.739	64.05
0.742	64.28
0.745	64.17
0.748	64.05
0.751	64.22
0.754	64.22
0.757	64.63
0.76	64.57
0.763	64.22
0.766	64.34
0.769	64.17
0.772	64.05
0.775	64.8
0.778	64.51
0.781	64.63
0.784	64.74
0.787	64.51
0.79	64.63
0.793	64.57
0.796	64.45
0.799	65.26
0.808	65.31
0.82	65.65
0.832	65.94
0.844	66.4
0.856	66.74
0.868	67.25
0.88	67.53
0.892	67.99
0.904	68.4
0.916	68.79
0.928	69.13
0.94	69.48
0.952	69.31
0.964	69.99
0.976	70.96
0.988	71.59
1	72.05
1.012	72.39
1.024	72.79
1.036	73.36
1.048	73.54
1.06	73.87
1.072	74.27
1.084	74.67
1.096	75.08
1.108	75.53
1.12	75.81
1.132	76.22
1.144	76.33
1.156	76.72
1.168	77.04
1.18	77.31
1.192	77.64
1.204	77.68
1.216	78.14
1.228	78.08
1.24	78.14
1.252	78.48
1.264	78.85
1.276	78.89
1.288	78.81
1.3	78.57
1.312	78.49
1.324	78.75
1.336	79.14
1.348	79.4
1.36	78.77
1.372	76.21
1.384	69.27
1.396	56.23
1.408	54.76
1.42	72.77
1.432	78.99
1.444	80.32
1.456	80.96
1.468	81.47
1.48	81.7
1.492	81.99
1.504	82.39
1.516	82.39
1.528	82.61
1.54	82.67
1.552	82.84
1.564	83.01
1.576	83.07
1.588	83.24
1.6	83.36
1.612	83.11
1.624	83.42
1.636	83.3
1.648	83.27
1.66	83.37
1.672	83.52
1.684	83.67
1.696	83.59
1.708	83.75
1.72	83.59
1.732	83.65
1.744	83.53
1.756	83.36
1.768	83.3
1.78	83.53
1.792	83.59
1.804	83.33
1.816	82.79
1.828	82.49
1.84	82.53
1.852	82.57
1.864	82.43
1.876	81.68
1.888	80.75
1.9	80.05
1.912	80.03
1.924	80.3
1.936	80.33
1.948	80.59
1.96	80.66
1.972	80.77
1.984	80.77
1.996	80.87
2.008	81.01
2.02	81.06
2.032	80.98
2.044	80.58
2.056	80.2
2.068	79.43
2.08	77.83
2.092	75.95
2.104	74.14
2.116	73.32
2.128	72.73
2.14	70.92
2.152	66.92
2.164	59.39
2.176	49.5
2.188	42.82
2.2	44.94
2.212	53.21
2.224	60.67
2.236	64.44
2.248	65.88
2.26	66.26
2.272	65.85
2.284	64.26
2.296	61.18
2.308	56.83
2.32	52.59
2.332	49.46
2.344	48.03
2.356	48.41
2.368	48.96
2.38	49.11
2.392	48.18
2.404	46.18
2.416	43.97
2.428	42.47
2.44	41.84
2.452	42.45
2.464	43.37
2.476	44.4
2.488	45.61
2.5	46.43
