Name: Cherty Limestone
Type: Rock
Class: Sedimentary
Subclass: Limestone
Particle Size: Solid surface
Sample No.: Ward71.txt
Owner: JPL
Origin: Ward's Collection of American Rocks.  Sample locality - Le Roy, Genesee County, New York.
Description: A compact dark gray rock with numerous irregular chert areas
Measurement: Hemispherical reflectance
X Units: Wavelength (micrometers)
Y Units: Reflectance (percent)
wavelength	value
15.3871	4.09295
15.118	4.37732
14.8581	4.26578
14.6069	4.74614
14.3642	4.49812
14.1293	5.22597
13.9021	3.53201
13.682	4.21369
13.4687	4.94534
13.2621	5.30231
13.0616	5.6768
12.8672	5.56456
12.6784	5.3172
12.4951	5.46621
12.317	4.51426
12.1439	4.6279
11.9757	5.05128
11.812	5.27452
11.6527	6.17259
11.4977	9.35744
11.3468	16.3863
11.1997	12.0662
11.0564	8.0878
10.9168	7.39056
10.7806	6.86993
10.6478	6.86787
10.5182	6.96346
10.3917	6.91388
10.2683	6.69474
10.1477	6.88685
10.0299	6.93896
9.9148	7.38073
9.8024	7.43686
9.6925	7.90612
9.585	8.51571
9.4798	9.43442
9.377	11.116
9.2763	12.0299
9.1778	11.2223
9.0814	10.4824
8.987	10.2209
8.8945	9.69766
8.8039	9.53568
8.7151	9.22129
8.6281	8.38858
8.5428	9.23778
8.4592	9.69865
8.3772	10.3208
8.2967	10.9697
8.2179	12.3217
8.1404	12.4872
8.0645	11.8067
7.9899	11.9819
7.9167	11.5028
7.8449	11.3139
7.7743	11.356
7.705	11.2848
7.6369	10.6703
7.57	10.4864
7.5043	10.6893
7.4397	10.8751
7.3762	11.1523
7.3138	11.2945
7.2524	12.2246
7.1921	14.0584
7.1327	16.8186
7.0743	21.1579
7.0169	21.571
6.9604	21.8943
6.9047	22.0492
6.85	23.0671
6.7962	24.4783
6.7431	25.6984
6.6909	28.0564
6.6395	31.3445
6.5889	32.9994
6.539	33.7937
6.49	34.2868
6.4416	28.0807
6.3939	17.3548
6.347	10.9926
6.3007	6.32873
6.2551	5.12069
6.2101	3.90895
6.1658	3.16719
6.1222	2.90596
6.0791	2.7423
6.0366	2.58686
5.9948	2.48712
5.9535	2.29527
5.9127	2.34205
5.8726	2.30878
5.8329	2.25299
5.7938	2.11374
5.7552	2.13823
5.7172	2.22161
5.6796	2.4305
5.6425	2.57855
5.6059	2.22521
5.5698	2.03418
5.5341	2.21541
5.4989	2.76952
5.4641	2.95509
5.4298	3.15953
5.3959	3.1493
5.3624	3.10248
5.3294	3.15246
5.2967	3.21177
5.2644	3.33809
5.2326	3.5853
5.2011	3.82297
5.17	3.83793
5.1392	3.7989
5.1088	3.88853
5.0788	3.91242
5.0491	3.80878
5.0198	3.96087
4.9908	4.04264
4.9622	4.17599
4.9338	4.39686
4.9058	4.56316
4.8781	4.96623
4.8508	5.16519
4.8237	5.33676
4.7969	5.39684
4.7704	5.41792
4.7443	5.26928
4.7184	4.70131
4.6927	4.30821
4.6674	4.26577
4.6423	4.46476
4.6175	5.11098
4.593	5.27568
4.5687	5.34984
4.5447	5.41483
4.5209	5.34432
4.4974	5.43575
4.4741	5.58991
4.451	5.85566
4.4282	6.23805
4.4057	6.46423
4.3833	6.85241
4.3612	6.75942
4.3393	6.67123
4.3176	6.60936
4.2962	6.36378
4.2749	5.99856
4.2539	6.4955
4.233	6.24032
4.2124	6.63618
4.192	6.94735
4.1717	6.64186
4.1517	6.7456
4.1319	6.38299
4.1122	5.9075
4.0927	5.63788
4.0734	5.39858
4.0543	4.85071
4.0354	4.40543
4.0166	4.1944
3.9981	3.82952
3.9796	3.54486
3.9614	3.53807
3.9433	3.72962
3.9254	3.80272
3.9077	3.80471
3.8901	3.9953
3.8726	4.00659
3.8554	4.16014
3.8382	4.11882
3.8213	4.34573
3.8045	4.76439
3.7878	5.76469
3.7713	6.38626
3.7549	6.90856
3.7386	7.20729
3.7225	7.74835
3.7066	7.85687
3.6907	7.97975
3.675	7.89388
3.6595	8.08171
3.644	7.69803
3.6287	7.59462
3.6136	7.41539
3.5985	6.98938
3.5836	6.44812
3.5688	6.02606
3.5541	5.4666
3.5396	5.28532
3.5251	4.6209
3.5108	4.27273
3.4966	4.2788
3.4825	3.96043
3.4685	4.00324
3.4547	4.4015
3.4409	4.42054
3.4273	4.35904
3.4137	4.33626
3.4003	4.39875
3.387	4.46344
3.3738	4.41038
3.3606	4.3251
3.3476	4.23712
3.3347	4.41651
3.3219	5.03397
3.3092	5.12354
3.2965	5.31832
3.284	5.63982
3.2716	5.75109
3.2593	5.97966
3.247	5.80697
3.2348	5.53795
3.2228	5.61797
3.2108	5.91494
3.1989	5.53718
3.1871	5.33011
3.1754	5.1981
3.1638	5.06844
3.1523	5.21455
3.1408	5.14259
3.1294	4.87669
3.1181	4.90511
3.1069	5.01241
3.0958	4.88123
3.0848	5.04955
3.0738	4.75574
3.0629	4.79464
3.0521	4.81763
3.0413	4.84253
3.0307	4.61353
3.0201	4.91813
3.0096	4.60548
2.9991	4.80734
2.9887	4.7308
2.9784	4.92802
2.9682	4.78394
2.9581	3.96975
2.948	4.66878
2.9379	4.37279
2.928	4.63409
2.9181	5.4259
2.9083	4.95708
2.8985	4.99749
2.8888	4.78568
2.8792	5.08752
2.8697	4.89951
2.8602	5.27624
2.8507	4.98504
2.8413	5.37532
2.832	5.48503
2.8228	5.51555
2.8136	5.23435
2.8045	5.72191
2.7954	5.40349
2.7864	5.00227
2.7774	5.11131
2.7685	5.5092
2.7597	5.30833
2.7509	6.03419
2.7422	6.53289
2.7335	6.64718
2.7249	8.46187
2.7163	9.18518
2.7078	12.045
2.6994	13.6615
2.691	15.8243
2.6826	16.9239
2.6743	17.5758
2.666	18.7141
2.6578	19.166
2.6497	19.2742
2.6416	19.8954
2.6336	19.6085
2.6256	19.6176
2.6176	20.415
2.6097	20.0735
2.6018	20.1665
2.594	19.8283
2.5863	19.5473
2.5785	18.6991
2.5709	18.6428
2.5633	17.733
2.5557	15.4656
2.5481	13.0573
2.5406	11.4009
2.5332	11.265
2.5258	12.4698
2.5184	13.3749
2.5111	13.5606
2.5038	14.6252
2.4966	14.6997
2.4894	15.0435
2.4823	15.3548
2.4752	16.0803
2.4681	17.2893
2.4611	17.9997
2.4541	18.8795
2.4471	19.0369
2.4402	19.8695
2.4333	20.5478
2.4265	21.4215
2.4197	21.3005
2.413	21.5629
2.4063	21.9215
2.3996	22.3711
2.3929	22.5824
2.3863	22.0899
2.3798	21.6662
2.3732	21.7842
2.3667	20.8621
2.3603	19.2603
2.3538	18.4316
2.3474	17.0933
2.3411	16.1593
2.3347	16.2033
2.3285	16.8671
2.3222	18.0778
2.316	18.4249
2.3098	18.8395
2.3036	19.9707
2.2975	19.0438
2.2914	19.8522
2.2854	20.8078
2.2793	20.8488
2.2733	21.9223
2.2674	22.2196
2.2614	22.7325
2.2555	22.8081
2.2497	23.2206
2.2438	23.15
2.238	22.6932
2.2322	23.3747
2.2265	22.2091
2.2208	24.0037
2.2151	23.0363
2.2094	23.0576
2.2038	23.0817
2.1982	24.6637
2.1926	24.652
2.187	23.832
2.1815	24.1004
2.176	23.5047
2.1706	24.256
2.1651	23.6916
2.1597	23.9917
2.1543	24.7527
2.149	24.3432
2.1436	24.7161
2.1383	24.2097
2.1331	24.5481
2.1278	24.6715
2.1226	23.5892
2.1174	24.4207
2.1122	23.9995
2.1071	25.7243
2.1019	24.8985
2.0968	23.2873
2.0918	25.2907
2.0867	23.9035
2.0817	25.6196
2.0767	23.9288
2.0717	25.2876
2.0667	23.9937
2.0618	26.1036
2.0569	25.7095
2.052	26.1988
2.0472	23.3669
2.0423	24.5285
2.0375	25.5091
2.0327	25.063
2.028	24.2723
2.0232	29.0913
2.0185	23.0444
2.0138	24.9948
2.0091	24.319
2.0044	24.8625
1.9998	23.7615
