Name: Verde Antique
Type: Rock
Class: Metamorphic
Subclass: Marble
Particle Size: Solid surface
Sample No.: Ward98.txt
Owner: JPL
Origin: Ward's Collection of American Rocks.  Sample locality - Roxbury, Washington County, Vermont.  Collected by - JPL.
Description: A massive, grayish green rock with veins of magnesite and
Measurement: Hemispherical reflectance
X Units: Wavelength (micrometers)
Y Units: Reflectance (percent)
wavelength	value
15.3871	17.4501
15.118	18.0653
14.8581	18.8972
14.6069	14.187
14.3642	5.98318
14.1293	3.99173
13.9021	2.63609
13.682	2.11161
13.4687	1.73648
13.2621	1.93616
13.0616	2.40883
12.8672	2.49225
12.6784	2.74567
12.4951	3.02848
12.317	3.66396
12.1439	3.92866
11.9757	4.31425
11.812	4.67892
11.6527	5.29634
11.4977	5.71853
11.3468	6.50172
11.1997	6.93619
11.0564	7.57478
10.9168	8.3838
10.7806	9.82608
10.6478	11.7591
10.5182	14.7349
10.3917	17.5671
10.2683	19.8941
10.1477	23.1208
10.0299	23.7902
9.9148	26.4627
9.8024	28.2354
9.6925	29.6943
9.585	34.107
9.4798	28.8917
9.377	17.1282
9.2763	11.999
9.1778	9.0242
9.0814	6.42499
8.987	3.91398
8.8945	2.60098
8.8039	2.06704
8.7151	1.99746
8.6281	2.10655
8.5428	1.75589
8.4592	1.95516
8.3772	1.89102
8.2967	1.87833
8.2179	2.15248
8.1404	2.24944
8.0645	2.3331
7.9899	2.48897
7.9167	2.6686
7.8449	3.01541
7.7743	3.03826
7.705	2.9822
7.6369	3.13048
7.57	3.13286
7.5043	2.94064
7.4397	3.24659
7.3762	3.36572
7.3138	3.33062
7.2524	3.36487
7.1921	3.71142
7.1327	3.73149
7.0743	3.92234
7.0169	4.22618
6.9604	4.02862
6.9047	4.41411
6.85	4.24059
6.7962	4.3616
6.7431	4.37781
6.6909	4.56173
6.6395	4.56581
6.5889	4.77673
6.539	4.78565
6.49	4.87149
6.4416	4.80729
6.3939	4.66016
6.347	4.70432
6.3007	4.56065
6.2551	4.46192
6.2101	4.06811
6.1658	4.23487
6.1222	4.01578
6.0791	4.04252
6.0366	4.23724
5.9948	4.11289
5.9535	3.95125
5.9127	4.1837
5.8726	4.13424
5.8329	4.10784
5.7938	4.34459
5.7552	4.51319
5.7172	4.63908
5.6796	4.83328
5.6425	4.83991
5.6059	5.07821
5.5698	5.29706
5.5341	5.29689
5.4989	5.37268
5.4641	5.50847
5.4298	5.57543
5.3959	5.51035
5.3624	5.70083
5.3294	5.73414
5.2967	5.85458
5.2644	5.88352
5.2326	6.09785
5.2011	6.23266
5.17	6.38591
5.1392	6.33188
5.1088	6.52448
5.0788	6.40514
5.0491	6.49033
5.0198	6.62601
4.9908	6.77973
4.9622	6.71065
4.9338	6.66348
4.9058	6.79156
4.8781	6.73172
4.8508	6.99301
4.8237	7.06736
4.7969	7.07302
4.7704	7.18417
4.7443	7.25991
4.7184	7.33057
4.6927	7.40317
4.6674	7.78754
4.6423	7.6663
4.6175	7.64309
4.593	7.84343
4.5687	7.78112
4.5447	7.93435
4.5209	8.11707
4.4974	8.0687
4.4741	8.10367
4.451	8.16764
4.4282	8.21704
4.4057	8.24728
4.3833	8.21649
4.3612	8.36983
4.3393	8.41967
4.3176	8.71925
4.2962	8.4569
4.2749	8.76973
4.2539	8.64037
4.233	8.66182
4.2124	8.68922
4.192	8.7871
4.1717	8.9383
4.1517	8.77404
4.1319	8.78229
4.1122	9.20926
4.0927	8.83405
4.0734	8.87188
4.0543	9.15261
4.0354	9.24014
4.0166	9.20687
3.9981	9.22055
3.9796	8.9727
3.9614	9.07292
3.9433	9.30266
3.9254	9.09767
3.9077	9.19942
3.8901	9.2969
3.8726	9.56636
3.8554	9.23951
3.8382	9.18773
3.8213	9.54432
3.8045	9.19641
3.7878	9.25339
3.7713	9.3189
3.7549	9.20438
3.7386	9.52492
3.7225	9.21059
3.7066	9.20742
3.6907	9.25801
3.675	9.42192
3.6595	9.41398
3.644	9.17533
3.6287	9.52643
3.6136	9.36172
3.5985	9.15888
3.5836	9.11788
3.5688	9.04691
3.5541	9.53565
3.5396	8.99954
3.5251	9.25705
3.5108	8.69442
3.4966	8.8346
3.4825	8.86326
3.4685	8.77448
3.4547	9.00311
3.4409	8.64123
3.4273	8.74168
3.4137	8.28748
3.4003	8.12399
3.387	8.45794
3.3738	8.48863
3.3606	8.32052
3.3476	8.40213
3.3347	8.06406
3.3219	8.45416
3.3092	8.16948
3.2965	8.58763
3.284	8.21996
3.2716	7.90804
3.2593	7.97204
3.247	7.86466
3.2348	8.0561
3.2228	7.93598
3.2108	8.48005
3.1989	8.26602
3.1871	7.78255
3.1754	7.43768
3.1638	7.92064
3.1523	8.08133
3.1408	7.53001
3.1294	7.63523
3.1181	7.60099
3.1069	7.44816
3.0958	7.17461
3.0848	7.58731
3.0738	6.96083
3.0629	7.35916
3.0521	6.67316
3.0413	6.90767
3.0307	7.02513
3.0201	6.45164
3.0096	6.73072
2.9991	6.66848
2.9887	6.89095
2.9784	6.53685
2.9682	6.37562
2.9581	5.18451
2.948	6.06165
2.9379	5.69692
2.928	6.30601
2.9181	5.52007
2.9083	5.20313
2.8985	5.44834
2.8888	5.4604
2.8792	5.86497
2.8697	6.20747
2.8602	5.98301
2.8507	6.16479
2.8413	5.60647
2.832	5.66754
2.8228	5.8053
2.8136	5.2635
2.8045	5.37705
2.7954	5.62515
2.7864	6.62745
2.7774	5.81649
2.7685	6.3229
2.7597	4.93046
2.7509	5.7083
2.7422	5.05652
2.7335	5.04414
2.7249	4.8143
2.7163	5.02919
2.7078	6.07366
2.6994	6.11604
2.691	7.93879
2.6826	9.42592
2.6743	9.96866
2.666	10.5726
2.6578	10.2095
2.6497	10.6001
2.6416	10.1342
2.6336	9.91097
2.6256	10.3612
2.6176	10.6601
2.6097	9.88927
2.6018	9.4014
2.594	9.90854
2.5863	9.44817
2.5785	9.05211
2.5709	9.00268
2.5633	9.55228
2.5557	9.44421
2.5481	9.31505
2.5406	9.32264
2.5332	10.2598
2.5258	9.46537
2.5184	9.67969
2.5111	9.82928
2.5038	9.04593
2.4966	9.20541
2.4894	9.67237
2.4823	8.91798
2.4752	9.44628
2.4681	10.4047
2.4611	9.59796
2.4541	8.9058
2.4471	9.57929
2.4402	10.2004
2.4333	10.0665
2.4265	10.1483
2.4197	10.5364
2.413	10.46
2.4063	9.85892
2.3996	10.127
2.3929	10.0067
2.3863	10.1442
2.3798	9.43377
2.3732	10.425
2.3667	9.84029
2.3603	9.83472
2.3538	9.57502
2.3474	10.6876
2.3411	9.02745
2.3347	9.27946
2.3285	9.11222
2.3222	8.84442
2.316	9.98628
2.3098	10.6579
2.3036	9.53678
2.2975	9.67526
2.2914	9.86268
2.2854	10.5754
2.2793	10.9848
2.2733	10.0918
2.2674	11.1786
2.2614	12.5631
2.2555	10.6957
2.2497	11.0784
2.2438	10.668
2.238	11.8315
2.2322	11.3989
2.2265	12.1227
2.2208	11.7247
2.2151	12.9737
2.2094	13.3497
2.2038	11.6864
2.1982	13.4792
2.1926	12.4421
2.187	13.497
2.1815	12.0126
2.176	11.7078
2.1706	12.8237
2.1651	12.5598
2.1597	12.8365
2.1543	13.1364
2.149	10.6357
2.1436	12.0111
2.1383	13.1538
2.1331	12.8034
2.1278	12.4185
2.1226	13.0336
2.1174	12.049
2.1122	11.0389
2.1071	13.4568
2.1019	13.0432
2.0968	11.6021
2.0918	12.3292
2.0867	11.9664
2.0817	11.7507
2.0767	13.6184
2.0717	11.5388
2.0667	13.4336
2.0618	11.9891
2.0569	12.7884
2.052	10.8259
2.0472	12.167
2.0423	12.7723
2.0375	10.3619
2.0327	12.1729
2.028	12.2247
2.0232	13.1635
2.0185	13.9829
2.0138	11.8323
2.0091	12.416
2.0044	10.92
1.9998	11.293
