Name: Hematite alpha Fe_2O_3
Type: Mineral
Class: Oxides
Particle Size: 125-500um
Sample No.: O-1A
Owner: JPL
Origin: USA, Alabama, Birmingham.
Measurement: Hemispherical reflectance
X Units: Wavelength (micrometers)
Y Units: Reflectance (percent)
wavelength	value
2.5	8.37816
2.494	8.33362
2.488	8.12894
2.482	8.37548
2.476	8.30807
2.47	8.27515
2.464	8.29178
2.458	8.27341
2.452	8.33273
2.446	8.27279
2.44	8.35553
2.434	8.26575
2.428	8.30467
2.422	8.3918
2.416	8.2577
2.41	8.26861
2.404	8.29459
2.398	8.3482
2.392	8.36627
2.386	8.33124
2.38	8.24153
2.374	8.34591
2.368	8.29494
2.362	8.2754
2.356	8.29626
2.35	8.32956
2.344	8.27248
2.338	8.27986
2.332	8.3025
2.326	8.24615
2.32	8.28111
2.314	8.2501
2.308	8.24819
2.302	8.20506
2.296	8.32056
2.29	8.23529
2.284	8.21254
2.278	8.2785
2.272	8.23391
2.266	8.19404
2.26	8.19555
2.254	8.21274
2.248	8.18079
2.242	8.23429
2.236	8.11802
2.23	8.13659
2.224	8.15043
2.218	8.1106
2.212	8.2288
2.206	8.17342
2.2	8.16544
2.194	8.23123
2.188	8.26859
2.182	8.25789
2.176	8.23325
2.17	8.19042
2.164	8.21673
2.158	8.25531
2.152	8.24251
2.146	8.20574
2.14	8.21977
2.134	8.22254
2.128	8.2312
2.122	8.20126
2.116	8.12782
2.11	8.15038
2.104	8.12221
2.098	8.07233
2.092	8.13849
2.086	8.10787
2.08	8.0762
2.074	8.12623
2.068	8.06309
2.062	8.11523
2.056	8.12382
2.05	8.12045
2.044	8.15964
2.038	8.07135
2.032	8.06302
2.026	8.09266
2.02	8.09818
2.014	8.09565
2.008	8.136
2.002	8.0591
1.996	8.12636
1.99	8.01222
1.984	8.09974
1.978	7.99587
1.972	8.08578
1.966	8.04616
1.96	8.08263
1.954	8.06172
1.948	8.04855
1.942	8.06541
1.936	8.12473
1.93	8.10701
1.924	8.10076
1.918	8.12049
1.912	8.14143
1.906	8.04199
1.9	8.02591
1.894	8.092
1.888	8.14061
1.882	8.15699
1.876	8.15393
1.87	8.1497
1.864	8.1813
1.858	8.09822
1.852	8.15832
1.846	8.12654
1.84	8.10879
1.834	8.09617
1.828	8.15364
1.822	8.06109
1.816	8.13882
1.81	8.0691
1.804	8.07507
1.798	8.15056
1.792	8.13157
1.786	8.07927
1.78	8.09264
1.774	8.03808
1.768	8.13341
1.762	8.06998
1.756	8.04795
1.75	8.09203
1.744	8.13954
1.738	8.11369
1.732	8.12031
1.726	8.07616
1.72	8.09159
1.714	8.1182
1.708	8.08443
1.702	8.14368
1.696	8.04317
1.69	8.09062
1.684	8.08102
1.678	8.09592
1.672	8.08436
1.666	8.11409
1.66	8.11974
1.654	8.14527
1.648	8.19668
1.642	8.16954
1.636	8.11873
1.63	8.19759
1.624	8.09522
1.618	8.21576
1.612	8.24536
1.606	8.22645
1.6	8.22875
1.594	8.23948
1.588	8.3032
1.582	8.26619
1.576	8.29394
1.57	8.29066
1.564	8.30578
1.558	8.24007
1.552	8.36163
1.546	8.36104
1.54	8.36129
1.534	8.32562
1.528	8.36858
1.522	8.39155
1.516	8.38281
1.51	8.40724
1.504	8.45294
1.498	8.46943
1.492	8.50248
1.486	8.58057
1.48	8.53748
1.474	8.48783
1.468	8.50996
1.462	8.53241
1.456	8.57972
1.45	8.55438
1.444	8.66208
1.438	8.68031
1.432	8.66409
1.426	8.70796
1.42	8.68489
1.414	8.63851
1.408	8.69312
1.402	8.79848
1.396	8.80564
1.39	8.8057
1.384	8.91443
1.378	8.99555
1.372	8.90651
1.366	8.93857
1.36	8.97075
1.354	9.12222
1.348	9.04339
1.342	9.03371
1.336	9.12894
1.33	9.10473
1.324	9.15333
1.318	9.24677
1.312	9.21652
1.306	9.24317
1.3	9.27509
1.294	9.26869
1.288	9.32384
1.282	9.40847
1.276	9.35155
1.27	9.42541
1.264	9.45271
1.258	9.52155
1.252	9.54331
1.246	9.53951
1.24	9.59454
1.234	9.66182
1.228	9.65977
1.222	9.75606
1.216	9.75157
1.21	9.79182
1.204	9.84382
1.198	9.84857
1.192	9.88795
1.186	9.93254
1.18	9.99807
1.174	10.0214
1.168	10.1062
1.162	10.0646
1.156	10.1701
1.15	10.1161
1.144	10.2497
1.138	10.3613
1.132	10.2442
1.126	10.3606
1.12	10.3542
1.114	10.4389
1.108	10.4771
1.102	10.4807
1.096	10.4706
1.09	10.5839
1.084	10.5844
1.078	10.5863
1.072	10.659
1.066	10.635
1.06	10.6933
1.054	10.6581
1.048	10.7603
1.042	10.6819
1.036	10.7329
1.03	10.6811
1.024	10.6919
1.018	10.6838
1.012	10.6875
1.006	10.6156
1	10.5354
0.994	10.4258
0.988	10.3565
0.982	10.2137
0.976	10.1472
0.97	10.0179
0.964	9.92148
0.958	9.7715
0.952	9.62606
0.946	9.54355
0.94	9.46856
0.934	9.36923
0.928	9.29372
0.922	9.15145
0.916	9.12981
0.91	9.07461
0.904	9.03543
0.898	8.95921
0.892	8.97488
0.886	8.94942
0.88	8.94758
0.874	8.92164
0.868	8.89326
0.862	8.94099
0.856	9.24643
0.85	9.29295
0.844	9.34803
0.838	9.43211
0.832	9.50431
0.826	9.59309
0.82	9.70195
0.814	9.8022
0.808	9.91256
0.802	10.0389
0.796	10.1614
0.79	10.32
0.784	10.4523
0.778	10.583
0.772	10.7259
0.766	10.8652
0.76	10.9677
0.754	11.0534
0.748	11.1156
0.742	11.153
0.736	11.1476
0.73	11.1087
0.724	11.0479
0.718	10.9554
0.712	10.8518
0.706	10.7439
0.7	10.6214
0.694	10.518
0.688	10.4105
0.682	10.3194
0.676	10.2382
0.67	10.1717
0.664	10.1163
0.658	10.0761
0.652	10.0502
0.646	10.0368
0.64	10.0344
0.634	10.0442
0.628	10.0434
0.622	10.0513
0.616	10.0372
0.61	9.99024
0.604	9.8887
0.598	9.71929
0.592	9.46988
0.586	9.13339
0.58	8.74563
0.574	8.36043
0.568	7.97859
0.562	7.65307
0.556	7.37641
0.55	7.17642
0.544	7.01814
0.538	6.89689
0.532	6.80328
0.526	6.72565
0.52	6.68074
0.514	6.64871
0.508	6.63157
0.502	6.6369
0.496	6.64906
0.49	6.65666
0.484	6.66645
0.478	6.69749
0.472	6.73989
0.466	6.78472
0.46	6.83554
0.454	6.88329
0.448	6.94266
0.442	6.98367
0.436	7.00904
0.43	7.00652
0.424	6.98509
0.418	6.96214
0.412	6.93897
0.406	6.90959
0.4	6.87991
