Name: Nontronite Na_0.33Fe_2^3+(Si,Al)_4O_10(OH)_2.H_2O
Type: Mineral
Class: Silicates
Subclass: Phyllosilicates
Particle Size: 0-45um
Sample No.: PS-6B
Owner: JPL
Origin: Germany, Westphalia, Hohen Hagen.
Measurement: Hemispherical reflectance
X Units: Wavelength (micrometers)
Y Units: Reflectance (percent)
wavelength	value
2.5	32.3756
2.494	32.7827
2.488	33.4712
2.482	34.3457
2.476	34.8216
2.47	35.4412
2.464	36.1037
2.458	36.5587
2.452	37.0855
2.446	37.5936
2.44	37.8957
2.434	38.2823
2.428	38.6611
2.422	38.8975
2.416	39.0145
2.41	39.0694
2.404	39.12
2.398	39.3998
2.392	40.1173
2.386	41.2219
2.38	42.4303
2.374	43.6962
2.368	44.6458
2.362	45.4526
2.356	46.15
2.35	46.8333
2.344	47.3367
2.338	47.8728
2.332	48.1663
2.326	48.2967
2.32	48.2576
2.314	47.7467
2.308	46.7616
2.302	45.0583
2.296	43.2418
2.29	41.8526
2.284	41.9262
2.278	43.2432
2.272	45.495
2.266	47.6419
2.26	49.6927
2.254	51.1578
2.248	52.2253
2.242	52.9073
2.236	53.2781
2.23	53.5023
2.224	53.7536
2.218	53.8344
2.212	54.1298
2.206	54.1786
2.2	54.3149
2.194	54.4884
2.188	54.6422
2.182	54.8043
2.176	55.0628
2.17	55.3582
2.164	55.5707
2.158	55.6953
2.152	55.7603
2.146	55.6624
2.14	55.5385
2.134	55.3299
2.128	55.1687
2.122	54.8791
2.116	54.5398
2.11	54.191
2.104	53.8159
2.098	53.4923
2.092	53.3448
2.086	53.0912
2.08	52.894
2.074	52.6777
2.068	52.4174
2.062	52.1659
2.056	51.8225
2.05	51.6044
2.044	51.1272
2.038	50.64
2.032	50.126
2.026	49.4641
2.02	48.8672
2.014	48.1856
2.008	47.4093
2.002	46.7018
1.996	45.9013
1.99	45.0144
1.984	44.2936
1.978	43.5328
1.972	42.8492
1.966	42.2757
1.96	41.7538
1.954	41.2205
1.948	40.6769
1.942	39.9662
1.936	39.3025
1.93	38.4297
1.924	37.1318
1.918	35.9024
1.912	34.579
1.906	34.7389
1.9	37.9034
1.894	43.1423
1.888	48.405
1.882	52.265
1.876	54.7764
1.87	56.7904
1.864	57.99
1.858	58.7384
1.852	59.198
1.846	59.4799
1.84	59.7195
1.834	59.8061
1.828	59.9109
1.822	59.9527
1.816	59.9611
1.81	60.01
1.804	60.0242
1.798	60.0376
1.792	60.0573
1.786	60.0612
1.78	60.1857
1.774	60.1897
1.768	60.4052
1.762	60.4497
1.756	60.629
1.75	60.7056
1.744	60.8682
1.738	60.915
1.732	61.0615
1.726	61.1135
1.72	61.157
1.714	61.1721
1.708	61.3175
1.702	61.2077
1.696	61.3807
1.69	61.3035
1.684	61.2774
1.678	61.3133
1.672	61.3369
1.666	61.3297
1.66	61.2677
1.654	61.285
1.648	61.2943
1.642	61.2772
1.636	61.1175
1.63	61.2188
1.624	61.1282
1.618	61.1056
1.612	61.0745
1.606	60.9784
1.6	60.8956
1.594	60.8343
1.588	60.7981
1.582	60.7345
1.576	60.6298
1.57	60.4418
1.564	60.3477
1.558	60.2371
1.552	60.1618
1.546	59.8976
1.54	59.7334
1.534	59.4178
1.528	59.3158
1.522	59.05
1.516	58.7666
1.51	58.4586
1.504	58.1106
1.498	57.7498
1.492	57.339
1.486	56.888
1.48	56.3328
1.474	55.7838
1.468	55.2093
1.462	54.893
1.456	54.8024
1.45	53.8787
1.444	52.1317
1.438	50.1584
1.432	49.743
1.426	50.615
1.42	51.0262
1.414	51.6836
1.408	52.8859
1.402	54.9394
1.396	57.3187
1.39	59.1792
1.384	60.3437
1.378	61.1435
1.372	61.56
1.366	61.7969
1.36	61.893
1.354	62.0736
1.348	62.1063
1.342	62.3167
1.336	62.3045
1.33	62.5051
1.324	62.4987
1.318	62.6392
1.312	62.7882
1.306	62.8657
1.3	62.8442
1.294	62.8063
1.288	62.8527
1.282	62.8273
1.276	62.8074
1.27	62.7491
1.264	62.6624
1.258	62.603
1.252	62.4471
1.246	62.4378
1.24	62.2963
1.234	62.1684
1.228	61.9808
1.222	61.9242
1.216	61.7425
1.21	61.4472
1.204	61.3657
1.198	61.0762
1.192	60.8721
1.186	60.6373
1.18	60.317
1.174	59.9307
1.168	59.6228
1.162	59.1559
1.156	58.7499
1.15	58.3939
1.144	58.0456
1.138	57.6692
1.132	57.3131
1.126	56.7334
1.12	56.2273
1.114	55.6436
1.108	55.1119
1.102	54.4978
1.096	53.9442
1.09	53.3887
1.084	52.8047
1.078	52.2379
1.072	51.5363
1.066	51.1179
1.06	50.4774
1.054	49.9434
1.048	49.3887
1.042	48.8194
1.036	48.4137
1.03	47.9336
1.024	47.4577
1.018	47.0235
1.012	46.6479
1.006	46.217
1	45.8266
0.994	45.4619
0.988	45.1758
0.982	44.8251
0.976	44.5662
0.97	44.3417
0.964	44.2058
0.958	44.1012
0.952	43.9613
0.946	43.9057
0.94	43.7986
0.934	43.7598
0.928	43.7882
0.922	43.7949
0.916	43.8139
0.91	43.9237
0.904	44.0898
0.898	44.1984
0.892	44.4354
0.886	44.635
0.88	44.9533
0.874	45.2428
0.868	45.5955
0.862	45.9253
0.856	46.5088
0.85	46.9298
0.844	47.45
0.838	47.9687
0.832	48.4539
0.826	49.0286
0.82	49.5464
0.814	50.122
0.808	50.6383
0.802	51.1386
0.796	51.6164
0.79	52.0301
0.784	52.4024
0.778	52.681
0.772	52.8996
0.766	53.0201
0.76	53.0618
0.754	52.9696
0.748	52.7303
0.742	52.4191
0.736	51.9547
0.73	51.3789
0.724	50.7279
0.718	49.9553
0.712	49.1013
0.706	48.1866
0.7	47.2041
0.694	46.2109
0.688	45.1785
0.682	44.1682
0.676	43.2144
0.67	42.352
0.664	41.6155
0.658	41.0317
0.652	40.6076
0.646	40.3288
0.64	40.162
0.634	40.0851
0.628	40.0805
0.622	40.1328
0.616	40.2296
0.61	40.3112
0.604	40.3256
0.598	40.2268
0.592	40.0003
0.586	39.5623
0.58	38.9144
0.574	38.0164
0.568	36.8733
0.562	35.4626
0.556	33.7409
0.55	31.8233
0.544	29.6973
0.538	27.5154
0.532	25.4065
0.526	23.496
0.52	21.8101
0.514	20.3624
0.508	19.106
0.502	18.001
0.496	17.0231
0.49	16.0337
0.484	14.9805
0.478	13.8334
0.472	12.4238
0.466	11.0237
0.46	10
0.454	9.38232
0.448	8.95485
0.442	8.61161
0.436	8.35045
0.43	8.06962
0.424	7.85666
0.418	7.65488
0.412	7.45598
0.406	7.21819
0.4	6.87148
