Name: Hemimorphite Zn_4Si_2O_7(OH)_2.H_2O
Type: Mineral
Class: Silicates
Subclass: Sorosilicate
Particle Size: 125-500um
Sample No.: SS-2A
Owner: JPL
Origin: Mexico, Durango, Ojuela Mine.
Measurement: Hemispherical reflectance
X Units: Wavelength (micrometers)
Y Units: Reflectance (percent)
wavelength	value
2.5	8.33987
2.494	8.64148
2.488	9.15602
2.482	9.75605
2.476	10.2741
2.47	10.5837
2.464	11.1951
2.458	11.4416
2.452	11.9546
2.446	12.3556
2.44	12.5511
2.434	12.9624
2.428	13.3179
2.422	13.7348
2.416	14.1705
2.41	14.5165
2.404	15.0466
2.398	15.4979
2.392	15.9994
2.386	16.5861
2.38	17.2263
2.374	18.0677
2.368	19.0917
2.362	20.2455
2.356	21.6538
2.35	23.186
2.344	24.8134
2.338	26.3092
2.332	27.6495
2.326	28.8475
2.32	29.8231
2.314	30.647
2.308	31.3534
2.302	31.9667
2.296	32.4215
2.29	32.7395
2.284	32.9312
2.278	33.0878
2.272	33.1054
2.266	33.0019
2.26	32.8678
2.254	32.4865
2.248	32.0576
2.242	31.5919
2.236	31.0468
2.23	30.5825
2.224	30.2634
2.218	30.1081
2.212	30.5311
2.206	30.9296
2.2	31.6955
2.194	32.547
2.188	33.5741
2.182	34.6574
2.176	35.7954
2.17	36.8827
2.164	37.9741
2.158	38.8934
2.152	39.8704
2.146	40.7607
2.14	41.6512
2.134	42.4047
2.128	43
2.122	43.5894
2.116	43.9992
2.11	44.2906
2.104	44.5073
2.098	44.618
2.092	44.7823
2.086	44.8318
2.08	44.7889
2.074	44.7518
2.068	44.5758
2.062	44.2957
2.056	43.9277
2.05	43.4217
2.044	42.7505
2.038	41.9311
2.032	40.952
2.026	39.8812
2.02	38.5802
2.014	37.1892
2.008	35.538
2.002	33.7206
1.996	31.704
1.99	29.5989
1.984	27.6338
1.978	26.0282
1.972	25.0475
1.966	24.5802
1.96	24.3049
1.954	23.9488
1.948	23.0328
1.942	21.2409
1.936	18.5973
1.93	15.403
1.924	12.3564
1.918	10.4938
1.912	10.5843
1.906	13.0085
1.9	17.3722
1.894	22.3331
1.888	27.3064
1.882	31.8074
1.876	35.2691
1.87	38.4968
1.864	40.5607
1.858	41.566
1.852	42.0252
1.846	42.041
1.84	42.0875
1.834	42.5556
1.828	43.084
1.822	43.7624
1.816	44.6644
1.81	45.8651
1.804	47.2922
1.798	48.8867
1.792	50.6402
1.786	52.5745
1.78	54.6954
1.774	57.0872
1.768	59.2319
1.762	61.3249
1.756	63.0722
1.75	64.6997
1.744	66.2063
1.738	67.4251
1.732	68.5753
1.726	69.6231
1.72	70.4313
1.714	71.1722
1.708	71.8326
1.702	72.3532
1.696	72.7427
1.69	73.0116
1.684	73.1541
1.678	73.1518
1.672	73.2246
1.666	73.1841
1.66	73.04
1.654	72.8739
1.648	72.7055
1.642	72.3554
1.636	72.0168
1.63	71.6768
1.624	71.2562
1.618	70.9555
1.612	70.5027
1.606	70.0856
1.6	69.5136
1.594	69.0796
1.588	68.5176
1.582	67.8792
1.576	67.2102
1.57	66.4876
1.564	65.7467
1.558	64.8804
1.552	63.9923
1.546	62.9643
1.54	61.8203
1.534	60.7221
1.528	59.3874
1.522	58.0039
1.516	56.4818
1.51	54.8409
1.504	53.0563
1.498	51.0986
1.492	48.9052
1.486	46.3906
1.48	43.309
1.474	40.2758
1.468	38.5555
1.462	38.1285
1.456	36.9884
1.45	34.8006
1.444	31.8775
1.438	28.5296
1.432	25.426
1.426	23.2912
1.42	22.9689
1.414	24.9392
1.408	28.7827
1.402	33.992
1.396	40.1175
1.39	46.1146
1.384	51.1331
1.378	55.0185
1.372	57.7931
1.366	60.2767
1.36	62.3514
1.354	64.4655
1.348	66.3966
1.342	68.1686
1.336	69.8714
1.33	71.467
1.324	72.8916
1.318	74.1564
1.312	75.2409
1.306	76.1774
1.3	76.7637
1.294	77.3349
1.288	77.6259
1.282	77.7426
1.276	77.9051
1.27	78.138
1.264	78.5381
1.258	78.986
1.252	79.2832
1.246	79.3486
1.24	79.4153
1.234	79.2954
1.228	79.0885
1.222	78.9587
1.216	78.6675
1.21	78.3642
1.204	77.6978
1.198	77.1439
1.192	77.0814
1.186	76.8361
1.18	76.1552
1.174	74.717
1.168	72.6983
1.162	71.9028
1.156	73.3033
1.15	75.9671
1.144	78.8449
1.138	80.8991
1.132	81.857
1.126	82.5089
1.12	83.1009
1.114	83.6435
1.108	84.0189
1.102	84.3491
1.096	84.452
1.09	84.5747
1.084	84.6701
1.078	84.8831
1.072	84.8136
1.066	84.7782
1.06	84.7902
1.054	84.709
1.048	84.6776
1.042	84.5463
1.036	84.297
1.03	84.0385
1.024	83.6319
1.018	83.1608
1.012	82.5373
1.006	81.787
1	80.9157
0.994	79.7284
0.988	78.3943
0.982	77.2052
0.976	76.3813
0.97	76.5877
0.964	78.0189
0.958	79.8751
0.952	80.971
0.946	82.2132
0.94	83.2925
0.934	83.9601
0.928	84.3842
0.922	84.709
0.916	84.8107
0.91	84.9466
0.904	84.9215
0.898	85.0509
0.892	85.0946
0.886	85.0803
0.88	85.0426
0.874	85.0934
0.868	85.0554
0.862	85.0151
0.856	84.7216
0.85	84.664
0.844	84.6785
0.838	84.7572
0.832	84.9758
0.826	85.0883
0.82	85.2042
0.814	85.2089
0.808	85.2213
0.802	85.2533
0.796	85.1559
0.79	85.1367
0.784	85.0039
0.778	84.9872
0.772	84.9074
0.766	84.8517
0.76	84.7277
0.754	84.645
0.748	84.5799
0.742	84.6346
0.736	84.807
0.73	84.9409
0.724	85.0182
0.718	85.075
0.712	85.1073
0.706	85.132
0.7	85.1306
0.694	85.1167
0.688	85.1252
0.682	85.1092
0.676	85.1084
0.67	85.065
0.664	85.0627
0.658	85.0819
0.652	85.0531
0.646	85.0464
0.64	85.0367
0.634	85.0004
0.628	84.9955
0.622	84.9602
0.616	84.9368
0.61	84.8922
0.604	84.8786
0.598	84.8882
0.592	84.9252
0.586	84.8801
0.58	84.8158
0.574	84.7642
0.568	84.6921
0.562	84.6173
0.556	84.4996
0.55	84.4174
0.544	84.3448
0.538	84.2893
0.532	84.1959
0.526	84.1134
0.52	84.0502
0.514	83.9771
0.508	83.8528
0.502	83.723
0.496	83.5715
0.49	83.3962
0.484	83.1963
0.478	83.1441
0.472	83.0378
0.466	82.925
0.46	82.7816
0.454	82.612
0.448	82.446
0.442	82.2076
0.436	82.0438
0.43	81.7983
0.424	81.6148
0.418	81.4419
0.412	81.2854
0.406	81.0886
0.4	80.8917
