Name: Pyrolusite MnO_2
Type: Mineral
Class: Oxides
Particle Size: <0-45um
Sample No.: O-6A
Owner: JPL
Origin: Mexico, Chihuahua.
Measurement: Hemispherical reflectance
X Units: Wavelength (micrometers)
Y Units: Reflectance (percent)
wavelength	value
2.5	11.7816
2.494	11.8994
2.488	11.8616
2.482	11.8931
2.476	11.8149
2.47	11.8187
2.464	11.7341
2.458	11.7205
2.452	11.766
2.446	11.7052
2.44	11.7603
2.434	11.668
2.428	11.6909
2.422	11.7216
2.416	11.6805
2.41	11.6166
2.404	11.617
2.398	11.5243
2.392	11.5372
2.386	11.5422
2.38	11.6474
2.374	11.6511
2.368	11.5245
2.362	11.4484
2.356	11.5039
2.35	11.4841
2.344	11.4542
2.338	11.5158
2.332	11.4433
2.326	11.4316
2.32	11.4312
2.314	11.3432
2.308	11.3276
2.302	11.3414
2.296	11.335
2.29	11.2416
2.284	11.2401
2.278	11.2234
2.272	11.075
2.266	11.1794
2.26	11.1694
2.254	11.147
2.248	11.0769
2.242	11.0633
2.236	11.0075
2.23	11.0298
2.224	11.041
2.218	10.9948
2.212	11.0882
2.206	11.0535
2.2	10.9108
2.194	10.965
2.188	11.002
2.182	10.9942
2.176	10.9881
2.17	10.9318
2.164	10.9516
2.158	10.9982
2.152	10.9944
2.146	10.9253
2.14	10.9386
2.134	10.8824
2.128	10.8858
2.122	10.7483
2.116	10.7225
2.11	10.7226
2.104	10.5793
2.098	10.6639
2.092	10.6307
2.086	10.5829
2.08	10.5729
2.074	10.5978
2.068	10.5462
2.062	10.5237
2.056	10.5511
2.05	10.5172
2.044	10.4593
2.038	10.4515
2.032	10.4728
2.026	10.4444
2.02	10.3805
2.014	10.3565
2.008	10.3344
2.002	10.362
1.996	10.3161
1.99	10.3025
1.984	10.2935
1.978	10.2793
1.972	10.2297
1.966	10.156
1.96	10.2133
1.954	10.0825
1.948	10.1246
1.942	10.15
1.936	10.1254
1.93	10.0139
1.924	10.0109
1.918	10.0097
1.912	10.0516
1.906	10.0159
1.9	9.98257
1.894	9.9998
1.888	9.95034
1.882	9.90429
1.876	9.93008
1.87	9.82164
1.864	9.87489
1.858	9.88002
1.852	9.82432
1.846	9.82583
1.84	9.79747
1.834	9.68681
1.828	9.67049
1.822	9.67387
1.816	9.62788
1.81	9.60055
1.804	9.60676
1.798	9.56609
1.792	9.51487
1.786	9.53346
1.78	9.44003
1.774	9.41814
1.768	9.44393
1.762	9.42396
1.756	9.3705
1.75	9.36313
1.744	9.30724
1.738	9.32228
1.732	9.25197
1.726	9.21735
1.72	9.20835
1.714	9.20217
1.708	9.18572
1.702	9.1855
1.696	9.11244
1.69	9.07821
1.684	8.99665
1.678	8.91773
1.672	8.93722
1.666	8.98735
1.66	8.93684
1.654	8.94648
1.648	8.82718
1.642	8.9023
1.636	8.83211
1.63	8.78025
1.624	8.74862
1.618	8.678
1.612	8.76743
1.606	8.66491
1.6	8.68189
1.594	8.62806
1.588	8.68869
1.582	8.59379
1.576	8.6197
1.57	8.53867
1.564	8.51844
1.558	8.48118
1.552	8.44797
1.546	8.50709
1.54	8.41413
1.534	8.4231
1.528	8.38438
1.522	8.34879
1.516	8.33124
1.51	8.33593
1.504	8.22518
1.498	8.24061
1.492	8.17173
1.486	8.20774
1.48	8.1034
1.474	8.14095
1.468	8.11843
1.462	8.097
1.456	8.05674
1.45	8.01053
1.444	7.92376
1.438	7.96669
1.432	7.94556
1.426	7.84743
1.42	7.87134
1.414	7.78547
1.408	7.74448
1.402	7.76485
1.396	7.68996
1.39	7.59033
1.384	7.55618
1.378	7.42522
1.372	7.38483
1.366	7.32249
1.36	7.19826
1.354	7.17939
1.348	7.04265
1.342	6.99674
1.336	6.96235
1.33	6.89455
1.324	6.80167
1.318	6.65395
1.312	6.55281
1.306	6.45701
1.3	6.39024
1.294	6.24902
1.288	6.21951
1.282	6.12214
1.276	5.9818
1.27	5.96333
1.264	5.88105
1.258	5.77556
1.252	5.71594
1.246	5.61859
1.24	5.55012
1.234	5.47553
1.228	5.43045
1.222	5.38725
1.216	5.27374
1.21	5.25361
1.204	5.19024
1.198	5.13739
1.192	5.03226
1.186	5.04762
1.18	4.85286
1.174	4.81834
1.168	4.84772
1.162	4.75574
1.156	4.7353
1.15	4.66765
1.144	4.64694
1.138	4.61812
1.132	4.53652
1.126	4.49521
1.12	4.50274
1.114	4.45707
1.108	4.34131
1.102	4.38214
1.096	4.35818
1.09	4.29887
1.084	4.19506
1.078	4.23333
1.072	4.18776
1.066	4.13266
1.06	4.18554
1.054	4.13374
1.048	4.03582
1.042	4.06032
1.036	4.14413
1.03	4.07201
1.024	4.09086
1.018	3.99213
1.012	4.01596
1.006	3.90744
1	3.9013
0.994	3.92233
0.988	4.03811
0.982	3.9008
0.976	3.93776
0.97	3.91374
0.964	3.98047
0.958	3.95992
0.952	3.91581
0.946	3.88114
0.94	3.86968
0.934	3.88595
0.928	3.94074
0.922	3.87164
0.916	3.89731
0.91	3.88942
0.904	3.82152
0.898	3.80282
0.892	3.88459
0.886	3.848
0.88	3.80244
0.874	3.8958
0.868	3.79792
0.862	3.83562
0.856	3.97338
0.85	3.96398
0.844	3.97051
0.838	3.96209
0.832	3.95425
0.826	3.95177
0.82	3.94203
0.814	3.94384
0.808	3.93337
0.802	3.93393
0.796	3.93048
0.79	3.9232
0.784	3.92353
0.778	3.91434
0.772	3.91109
0.766	3.9043
0.76	3.90162
0.754	3.89236
0.748	3.89733
0.742	3.89506
0.736	3.89728
0.73	3.89433
0.724	3.89459
0.718	3.89253
0.712	3.89602
0.706	3.90146
0.7	3.90326
0.694	3.9062
0.688	3.9069
0.682	3.91256
0.676	3.91694
0.67	3.9238
0.664	3.93003
0.658	3.93744
0.652	3.94685
0.646	3.95465
0.64	3.96427
0.634	3.97411
0.628	3.98668
0.622	3.99813
0.616	4.01082
0.61	4.0224
0.604	4.04019
0.598	4.05125
0.592	4.06931
0.586	4.08221
0.58	4.09846
0.574	4.11641
0.568	4.13082
0.562	4.14743
0.556	4.16385
0.55	4.18443
0.544	4.19444
0.538	4.21345
0.532	4.23506
0.526	4.25948
0.52	4.28169
0.514	4.31289
0.508	4.34197
0.502	4.37254
0.496	4.40059
0.49	4.42638
0.484	4.43947
0.478	4.45789
0.472	4.48254
0.466	4.50995
0.46	4.54014
0.454	4.56561
0.448	4.59175
0.442	4.61637
0.436	4.63232
0.43	4.65475
0.424	4.67944
0.418	4.70187
0.412	4.72797
0.406	4.75144
0.4	4.77584
