Name: Malachite Cu_2(CO_3)(OH)_2
Type: Mineral
Class: Carbonates
Particle Size: 45-125um
Sample No.: C-7A
Owner: JPL
Origin: USA, California, San Bernadino County, Near Valley Wells.
Measurement: Hemispherical reflectance
X Units: Wavelength (micrometers)
Y Units: Reflectance (percent)
wavelength	value
2.5	17.8463
2.494	17.9268
2.488	18.219
2.482	18.2849
2.476	18.5602
2.47	18.7859
2.464	19.0298
2.458	19.1036
2.452	19.2865
2.446	19.3092
2.44	19.4731
2.434	19.4619
2.428	19.6257
2.422	19.6761
2.416	19.8909
2.41	20.0759
2.404	20.228
2.398	20.5491
2.392	20.9162
2.386	21.4562
2.38	21.9141
2.374	22.3018
2.368	22.5424
2.362	22.8103
2.356	23.1814
2.35	23.7798
2.344	24.739
2.338	25.8995
2.332	26.9482
2.326	27.6736
2.32	28.1344
2.314	28.1812
2.308	28.0302
2.302	27.4282
2.296	26.7162
2.29	25.8039
2.284	24.8432
2.278	23.9803
2.272	23.3889
2.266	23.2992
2.26	23.99
2.254	25.0524
2.248	26.3669
2.242	27.7491
2.236	29.0325
2.23	30.0026
2.224	30.6537
2.218	31.0272
2.212	31.6766
2.206	32.7113
2.2	34.0952
2.194	35.3587
2.188	36.5472
2.182	37.2793
2.176	38.0354
2.17	38.5711
2.164	39.1027
2.158	39.4123
2.152	39.8332
2.146	39.9966
2.14	40.12
2.134	39.9758
2.128	39.6962
2.122	39.2936
2.116	38.857
2.11	38.3872
2.104	38.0045
2.098	37.6944
2.092	37.426
2.086	37.1899
2.08	36.8517
2.074	36.397
2.068	36.0313
2.062	35.6113
2.056	35.1613
2.05	34.639
2.044	34.0129
2.038	33.4067
2.032	32.708
2.026	31.9906
2.02	31.3576
2.014	30.6609
2.008	29.924
2.002	29.1731
1.996	28.3207
1.99	27.4567
1.984	26.6682
1.978	25.9032
1.972	25.0937
1.966	24.3393
1.96	23.6113
1.954	22.9766
1.948	22.3566
1.942	21.8454
1.936	21.229
1.93	20.8014
1.924	20.0749
1.918	19.7189
1.912	19.6295
1.906	20.3104
1.9	22.3492
1.894	25.449
1.888	28.687
1.882	31.8039
1.876	34.5852
1.87	37.3272
1.864	38.9737
1.858	39.6312
1.852	39.9127
1.846	39.9522
1.84	40.0274
1.834	40.0398
1.828	39.9403
1.822	39.7336
1.816	39.4843
1.81	39.2795
1.804	38.913
1.798	38.6797
1.792	38.3145
1.786	38.1036
1.78	37.7857
1.774	37.4578
1.768	37.2428
1.762	36.9943
1.756	36.7389
1.75	36.4616
1.744	36.2586
1.738	35.9038
1.732	35.6604
1.726	35.3025
1.72	34.9953
1.714	34.6454
1.708	34.3439
1.702	33.9531
1.696	33.6257
1.69	33.2861
1.684	32.8413
1.678	32.5042
1.672	32.2334
1.666	31.7322
1.66	31.3333
1.654	31.0226
1.648	30.5515
1.642	30.2895
1.636	29.7572
1.63	29.4493
1.624	28.9937
1.618	28.6426
1.612	28.2523
1.606	27.8036
1.6	27.449
1.594	27.0777
1.588	26.7093
1.582	26.407
1.576	26.0286
1.57	25.7069
1.564	25.3166
1.558	24.9324
1.552	24.6041
1.546	24.197
1.54	23.8176
1.534	23.5086
1.528	23.1751
1.522	22.8342
1.516	22.4925
1.51	22.1404
1.504	21.7773
1.498	21.3622
1.492	21.0552
1.486	20.7019
1.48	20.2293
1.474	19.9223
1.468	19.4969
1.462	19.2276
1.456	18.9901
1.45	18.7503
1.444	18.479
1.438	18.2096
1.432	17.9011
1.426	17.6091
1.42	17.0864
1.414	16.6757
1.408	16.9439
1.402	17.5321
1.396	17.9017
1.39	18.1583
1.384	18.2246
1.378	18.2404
1.372	18.2094
1.366	18.1215
1.36	17.9413
1.354	17.9042
1.348	17.7712
1.342	17.5521
1.336	17.4179
1.33	17.3548
1.324	17.1601
1.318	17.0391
1.312	16.9083
1.306	16.7764
1.3	16.6534
1.294	16.5748
1.288	16.3755
1.282	16.2787
1.276	16.1363
1.27	16.1225
1.264	15.8891
1.258	15.858
1.252	15.7009
1.246	15.6076
1.24	15.5155
1.234	15.418
1.228	15.3413
1.222	15.2963
1.216	15.1645
1.21	15.0907
1.204	14.9773
1.198	14.9157
1.192	14.8458
1.186	14.8236
1.18	14.7871
1.174	14.6406
1.168	14.6424
1.162	14.5654
1.156	14.4593
1.15	14.4632
1.144	14.4153
1.138	14.3545
1.132	14.2618
1.126	14.2229
1.12	14.2234
1.114	14.163
1.108	14.0621
1.102	14.0367
1.096	13.8442
1.09	13.7645
1.084	13.703
1.078	13.5638
1.072	13.3882
1.066	13.2685
1.06	13.2089
1.054	12.9472
1.048	12.7556
1.042	12.5701
1.036	12.2909
1.03	12.0503
1.024	11.7598
1.018	11.5003
1.012	11.2253
1.006	10.9017
1	10.6956
0.994	10.3328
0.988	10.0617
0.982	9.78228
0.976	9.43643
0.97	9.19279
0.964	8.88186
0.958	8.60566
0.952	8.25937
0.946	8.07084
0.94	7.80125
0.934	7.63717
0.928	7.28577
0.922	7.09414
0.916	6.88457
0.91	6.65592
0.904	6.46498
0.898	6.25945
0.892	6.0961
0.886	5.97043
0.88	5.82903
0.874	5.66918
0.868	5.59606
0.862	5.53282
0.856	5.69864
0.85	5.61473
0.844	5.53016
0.838	5.46832
0.832	5.41521
0.826	5.35092
0.82	5.31242
0.814	5.27777
0.808	5.24209
0.802	5.20351
0.796	5.17351
0.79	5.15674
0.784	5.14015
0.778	5.12279
0.772	5.12104
0.766	5.12717
0.76	5.14392
0.754	5.17215
0.748	5.21008
0.742	5.26418
0.736	5.32617
0.73	5.40637
0.724	5.5102
0.718	5.62756
0.712	5.76519
0.706	5.92125
0.7	6.11033
0.694	6.32811
0.688	6.57099
0.682	6.85182
0.676	7.18359
0.67	7.55767
0.664	7.99386
0.658	8.49749
0.652	9.05227
0.646	9.71709
0.64	10.4854
0.634	11.3665
0.628	12.3792
0.622	13.5336
0.616	14.8429
0.61	16.3222
0.604	17.9452
0.598	19.8013
0.592	21.866
0.586	24.09
0.58	26.4903
0.574	29.0173
0.568	31.6161
0.562	34.1702
0.556	36.6797
0.55	38.9647
0.544	40.9087
0.538	42.444
0.532	43.4988
0.526	44.0865
0.52	44.238
0.514	43.9992
0.508	43.4003
0.502	42.4887
0.496	41.3124
0.49	39.8536
0.484	38.1755
0.478	36.4238
0.472	34.6205
0.466	32.7698
0.46	31.0026
0.454	29.3499
0.448	27.841
0.442	26.4512
0.436	25.1563
0.43	23.8538
0.424	22.4453
0.418	20.8436
0.412	19.0006
0.406	16.9727
0.4	14.8109
