Name: Columbite Fe^2+Nb_2O_6
Type: Mineral
Class: Oxides
Particle Size: 45-125um
Sample No.: O-7A
Owner: JPL
Origin: USA, South Dakota, Pennington County, Keystone.
Measurement: Hemispherical reflectance
X Units: Wavelength (micrometers)
Y Units: Reflectance (percent)
wavelength	value
2.5	18.2223
2.494	17.906
2.488	18.0257
2.482	17.834
2.476	17.9032
2.47	17.8754
2.464	17.915
2.458	17.8802
2.452	17.7768
2.446	17.6602
2.44	17.7105
2.434	17.6062
2.428	17.6184
2.422	17.5836
2.416	17.5484
2.41	17.4085
2.404	17.3571
2.398	17.3823
2.392	17.2892
2.386	17.2306
2.38	17.1775
2.374	17.1543
2.368	17.1373
2.362	17.0251
2.356	17.0286
2.35	16.8693
2.344	16.8378
2.338	16.764
2.332	16.6968
2.326	16.6432
2.32	16.5935
2.314	16.4306
2.308	16.3841
2.302	16.3202
2.296	16.2885
2.29	16.1639
2.284	16.0707
2.278	15.9809
2.272	15.9167
2.266	15.8323
2.26	15.7772
2.254	15.6794
2.248	15.5934
2.242	15.5874
2.236	15.4823
2.23	15.3799
2.224	15.3357
2.218	15.2198
2.212	15.2449
2.206	15.0136
2.2	14.9855
2.194	14.9515
2.188	14.9031
2.182	14.7242
2.176	14.7127
2.17	14.6293
2.164	14.5513
2.158	14.448
2.152	14.2773
2.146	14.2376
2.14	14.2014
2.134	14.0204
2.128	13.9033
2.122	13.7286
2.116	13.6045
2.11	13.4801
2.104	13.2807
2.098	13.1052
2.092	13.0261
2.086	12.9241
2.08	12.8253
2.074	12.7063
2.068	12.6116
2.062	12.5503
2.056	12.4193
2.05	12.2982
2.044	12.1822
2.038	12.0978
2.032	11.9877
2.026	11.8235
2.02	11.7517
2.014	11.6229
2.008	11.4854
2.002	11.3899
1.996	11.2236
1.99	11.1515
1.984	11.1135
1.978	10.9104
1.972	10.8049
1.966	10.5945
1.96	10.5946
1.954	10.7517
1.948	10.5497
1.942	10.3777
1.936	10.1617
1.93	10.0229
1.924	9.87858
1.918	9.82905
1.912	9.71566
1.906	9.62787
1.9	9.55188
1.894	9.47706
1.888	9.28871
1.882	9.27193
1.876	9.1898
1.87	9.11127
1.864	9.08379
1.858	8.97656
1.852	8.92407
1.846	8.77548
1.84	8.70304
1.834	8.64017
1.828	8.65822
1.822	8.50713
1.816	8.46492
1.81	8.28459
1.804	8.29233
1.798	8.2632
1.792	8.20541
1.786	8.07458
1.78	8.03216
1.774	7.96763
1.768	7.95838
1.762	7.86921
1.756	7.84312
1.75	7.76413
1.744	7.74289
1.738	7.74136
1.732	7.58915
1.726	7.55968
1.72	7.54988
1.714	7.48315
1.708	7.51335
1.702	7.50335
1.696	7.36571
1.69	7.36414
1.684	7.36718
1.678	7.3158
1.672	7.30666
1.666	7.18274
1.66	7.2136
1.654	7.24767
1.648	7.18349
1.642	7.2339
1.636	7.04971
1.63	7.12528
1.624	7.06513
1.618	7.04468
1.612	7.09595
1.606	6.98724
1.6	7.07966
1.594	7.00235
1.588	6.95714
1.582	6.99722
1.576	6.90251
1.57	6.8728
1.564	6.95576
1.558	6.90448
1.552	6.88329
1.546	6.88953
1.54	6.89142
1.534	6.88504
1.528	6.79949
1.522	6.89558
1.516	6.81265
1.51	6.77293
1.504	6.79728
1.498	6.78514
1.492	6.76509
1.486	6.79706
1.48	6.78065
1.474	6.74705
1.468	6.81848
1.462	6.74167
1.456	6.73928
1.45	6.75049
1.444	6.67616
1.438	6.7014
1.432	6.71007
1.426	6.67309
1.42	6.64491
1.414	6.6384
1.408	6.65499
1.402	6.66866
1.396	6.68443
1.39	6.68008
1.384	6.66836
1.378	6.70447
1.372	6.61446
1.366	6.59382
1.36	6.55439
1.354	6.70744
1.348	6.62538
1.342	6.58594
1.336	6.56569
1.33	6.52957
1.324	6.55647
1.318	6.5088
1.312	6.51041
1.306	6.53442
1.3	6.51623
1.294	6.59669
1.288	6.49765
1.282	6.53322
1.276	6.50771
1.27	6.52555
1.264	6.50248
1.258	6.52713
1.252	6.51728
1.246	6.50415
1.24	6.47792
1.234	6.52263
1.228	6.52052
1.222	6.51418
1.216	6.56928
1.21	6.48116
1.204	6.48033
1.198	6.5563
1.192	6.44342
1.186	6.54773
1.18	6.43693
1.174	6.45155
1.168	6.48199
1.162	6.46565
1.156	6.51619
1.15	6.53218
1.144	6.45437
1.138	6.56212
1.132	6.53406
1.126	6.50715
1.12	6.38643
1.114	6.45672
1.108	6.50936
1.102	6.53777
1.096	6.56433
1.09	6.47984
1.084	6.51027
1.078	6.48767
1.072	6.45804
1.066	6.59902
1.06	6.51418
1.054	6.53962
1.048	6.44669
1.042	6.46239
1.036	6.47562
1.03	6.41743
1.024	6.41428
1.018	6.46156
1.012	6.42277
1.006	6.4249
1	6.39296
0.994	6.41649
0.988	6.40512
0.982	6.34169
0.976	6.38674
0.97	6.35414
0.964	6.36384
0.958	6.31002
0.952	6.32716
0.946	6.31794
0.94	6.38501
0.934	6.33198
0.928	6.31394
0.922	6.23929
0.916	6.22026
0.91	6.24501
0.904	6.25542
0.898	6.2357
0.892	6.20951
0.886	6.23078
0.88	6.18757
0.874	6.19232
0.868	6.20485
0.862	6.20227
0.856	6.48893
0.85	6.48738
0.844	6.46953
0.838	6.45708
0.832	6.45221
0.826	6.44124
0.82	6.42711
0.814	6.42033
0.808	6.41131
0.802	6.40763
0.796	6.39591
0.79	6.38856
0.784	6.38588
0.778	6.36801
0.772	6.35699
0.766	6.35441
0.76	6.33921
0.754	6.33966
0.748	6.33546
0.742	6.32871
0.736	6.32217
0.73	6.31697
0.724	6.31197
0.718	6.31352
0.712	6.30556
0.706	6.30248
0.7	6.29803
0.694	6.29569
0.688	6.29301
0.682	6.28829
0.676	6.28563
0.67	6.2857
0.664	6.28677
0.658	6.28427
0.652	6.28516
0.646	6.28291
0.64	6.28499
0.634	6.28221
0.628	6.2831
0.622	6.28433
0.616	6.28366
0.61	6.28752
0.604	6.29153
0.598	6.2968
0.592	6.30298
0.586	6.30595
0.58	6.3107
0.574	6.31511
0.568	6.31907
0.562	6.32748
0.556	6.33209
0.55	6.3399
0.544	6.34837
0.538	6.35682
0.532	6.36751
0.526	6.38005
0.52	6.39255
0.514	6.40278
0.508	6.41944
0.502	6.43168
0.496	6.45127
0.49	6.4739
0.484	6.49354
0.478	6.51822
0.472	6.54987
0.466	6.57817
0.46	6.60416
0.454	6.64292
0.448	6.67464
0.442	6.71915
0.436	6.76093
0.43	6.81242
0.424	6.86713
0.418	6.9263
0.412	6.99446
0.406	7.06474
0.4	7.14579
