Name: Biotite K(Mg,Fe^2+)_3(Al,Fe^3+)Si_3O_10(OH,F)_2
Type: Mineral
Class: Silicates
Subclass: Phyllosilicates
Particle Size: 0-45um
Sample No.: PS-23A
Owner: JPL
Origin: Unknown.
Measurement: Hemispherical reflectance
X Units: Wavelength (micrometers)
Y Units: Reflectance (percent)
wavelength	value
2.5	47.5093
2.494	47.4926
2.488	47.3155
2.482	47.0847
2.476	47.1412
2.47	47.0708
2.464	46.9174
2.458	46.8486
2.452	46.9041
2.446	46.7006
2.44	46.6506
2.434	46.5266
2.428	46.4239
2.422	46.3014
2.416	46.022
2.41	45.7841
2.404	45.5945
2.398	45.4651
2.392	45.3901
2.386	45.4261
2.38	45.5657
2.374	45.6495
2.368	45.621
2.362	45.474
2.356	45.1917
2.35	44.9959
2.344	44.7159
2.338	44.4947
2.332	44.5009
2.326	44.6187
2.32	44.8512
2.314	45.2286
2.308	45.3901
2.302	45.6157
2.296	45.8791
2.29	45.9535
2.284	45.9848
2.278	45.9569
2.272	45.8053
2.266	45.6578
2.26	45.3926
2.254	45.2023
2.248	45.1618
2.242	45.3648
2.236	45.4535
2.23	45.5053
2.224	45.535
2.218	45.6195
2.212	45.5458
2.206	45.513
2.2	45.3619
2.194	45.2976
2.188	45.1571
2.182	45.0454
2.176	44.9998
2.17	44.9954
2.164	44.8517
2.158	44.8585
2.152	44.7083
2.146	44.572
2.14	44.3595
2.134	44.1245
2.128	43.861
2.122	43.6146
2.116	43.2385
2.11	42.9529
2.104	42.6504
2.098	42.3846
2.092	42.2413
2.086	42.1151
2.08	42.0778
2.074	41.9108
2.068	41.7319
2.062	41.5676
2.056	41.4167
2.05	41.2852
2.044	41.1166
2.038	40.9607
2.032	40.8652
2.026	40.5711
2.02	40.413
2.014	40.2416
2.008	40.0189
2.002	39.7637
1.996	39.6131
1.99	39.3731
1.984	39.1652
1.978	38.9007
1.972	38.6583
1.966	38.4364
1.96	38.2131
1.954	38.0095
1.948	37.7346
1.942	37.6406
1.936	37.4468
1.93	37.2033
1.924	37.0321
1.918	36.8719
1.912	36.617
1.906	36.447
1.9	36.253
1.894	36.0734
1.888	35.9377
1.882	35.6876
1.876	35.5914
1.87	35.3508
1.864	35.1295
1.858	34.9188
1.852	34.7461
1.846	34.4697
1.84	34.2076
1.834	34.0493
1.828	33.7952
1.822	33.6221
1.816	33.4054
1.81	33.1569
1.804	32.9298
1.798	32.703
1.792	32.5198
1.786	32.2157
1.78	31.978
1.774	31.7106
1.768	31.5201
1.762	31.2344
1.756	31.0246
1.75	30.7634
1.744	30.5636
1.738	30.3543
1.732	30.0994
1.726	29.9163
1.72	29.6337
1.714	29.4254
1.708	29.2351
1.702	28.9991
1.696	28.7215
1.69	28.4823
1.684	28.231
1.678	28.011
1.672	27.7856
1.666	27.5689
1.66	27.3447
1.654	27.0496
1.648	26.7586
1.642	26.6075
1.636	26.4267
1.63	26.1338
1.624	25.8961
1.618	25.6655
1.612	25.462
1.606	25.2462
1.6	24.9586
1.594	24.7079
1.588	24.508
1.582	24.3093
1.576	24.108
1.57	23.8131
1.564	23.567
1.558	23.2894
1.552	23.1082
1.546	22.941
1.54	22.6159
1.534	22.4079
1.528	22.1355
1.522	21.947
1.516	21.7664
1.51	21.5248
1.504	21.2714
1.498	21.0787
1.492	20.7951
1.486	20.5989
1.48	20.4082
1.474	20.2281
1.468	19.9345
1.462	19.7019
1.456	19.4978
1.45	19.2506
1.444	19.0962
1.438	18.8863
1.432	18.6564
1.426	18.4577
1.42	18.1987
1.414	17.9932
1.408	17.8838
1.402	17.6226
1.396	17.3264
1.39	17.0453
1.384	17.0209
1.378	16.849
1.372	16.6877
1.366	16.4784
1.36	16.2085
1.354	16.1657
1.348	15.9831
1.342	15.7319
1.336	15.5731
1.33	15.3678
1.324	15.2143
1.318	14.9944
1.312	14.896
1.306	14.777
1.3	14.5673
1.294	14.296
1.288	14.2475
1.282	14.0867
1.276	13.9481
1.27	13.8127
1.264	13.6044
1.258	13.4595
1.252	13.4169
1.246	13.2764
1.24	13.1549
1.234	13.0528
1.228	12.9792
1.222	12.8239
1.216	12.675
1.21	12.6563
1.204	12.5143
1.198	12.4687
1.192	12.3183
1.186	12.2685
1.18	12.2513
1.174	12.1757
1.168	12.1016
1.162	12.0764
1.156	11.98
1.15	11.9082
1.144	11.8662
1.138	11.8614
1.132	11.8062
1.126	11.8158
1.12	11.705
1.114	11.7728
1.108	11.6818
1.102	11.7217
1.096	11.6625
1.09	11.6623
1.084	11.6452
1.078	11.5554
1.072	11.5835
1.066	11.5414
1.06	11.5589
1.054	11.5067
1.048	11.4606
1.042	11.4619
1.036	11.402
1.03	11.3983
1.024	11.3837
1.018	11.2096
1.012	11.1733
1.006	11.134
1	11.0528
0.994	10.945
0.988	10.9145
0.982	10.8553
0.976	10.7545
0.97	10.6539
0.964	10.592
0.958	10.5256
0.952	10.4137
0.946	10.3497
0.94	10.3257
0.934	10.2577
0.928	10.251
0.922	10.1494
0.916	10.163
0.91	10.1255
0.904	10.0478
0.898	10.0706
0.892	10.0916
0.886	10.1287
0.88	10.1147
0.874	10.1782
0.868	10.2785
0.862	10.1996
0.856	10.6348
0.85	10.632
0.844	10.5935
0.838	10.5608
0.832	10.5284
0.826	10.4694
0.82	10.4056
0.814	10.3107
0.808	10.2134
0.802	10.1033
0.796	9.96773
0.79	9.84053
0.784	9.71095
0.778	9.57931
0.772	9.44762
0.766	9.31765
0.76	9.20395
0.754	9.09195
0.748	9.0019
0.742	8.92505
0.736	8.85957
0.73	8.80833
0.724	8.77009
0.718	8.74869
0.712	8.73973
0.706	8.73783
0.7	8.74359
0.694	8.76713
0.688	8.79031
0.682	8.82467
0.676	8.85596
0.67	8.89406
0.664	8.91883
0.658	8.95467
0.652	8.99051
0.646	9.02435
0.64	9.05322
0.634	9.07709
0.628	9.09084
0.622	9.09843
0.616	9.09857
0.61	9.09222
0.604	9.07747
0.598	9.06311
0.592	9.03814
0.586	8.99975
0.58	8.95288
0.574	8.89518
0.568	8.83218
0.562	8.75558
0.556	8.65912
0.55	8.57864
0.544	8.48431
0.538	8.38097
0.532	8.26256
0.526	8.13958
0.52	7.99758
0.514	7.84589
0.508	7.69936
0.502	7.55203
0.496	7.38254
0.49	7.22893
0.484	7.05795
0.478	6.9275
0.472	6.82815
0.466	6.72504
0.46	6.61865
0.454	6.49841
0.448	6.38199
0.442	6.26215
0.436	6.14384
0.43	6.01436
0.424	5.90527
0.418	5.82778
0.412	5.77773
0.406	5.7356
0.4	5.70317
