Name: Jarosite KFe_3^3+(SO_4)_2(OH)_6
Type: Mineral
Class: Sulfates
Particle Size: 0-45um
Sample No.: SO-7A
Owner: JPL
Origin: Mexico, Chihuahua.
Measurement: Hemispherical reflectance
X Units: Wavelength (micrometers)
Y Units: Reflectance (percent)
wavelength	value
2.5	61.9576
2.494	62.1392
2.488	62.4077
2.482	62.5598
2.476	62.5733
2.47	62.7901
2.464	62.7411
2.458	63.0013
2.452	63.3783
2.446	63.6802
2.44	63.9948
2.434	64.4663
2.428	64.9963
2.422	65.4286
2.416	65.7655
2.41	66.1653
2.404	66.5672
2.398	66.882
2.392	67.3889
2.386	67.9101
2.38	68.3917
2.374	68.5976
2.368	69.4077
2.362	69.7039
2.356	70.102
2.35	70.287
2.344	70.2927
2.338	70.2398
2.332	69.8009
2.326	69.311
2.32	68.7249
2.314	67.9878
2.308	67.2757
2.302	66.6736
2.296	66.0459
2.29	65.4857
2.284	65.2308
2.278	65.2517
2.272	65.4685
2.266	66.1477
2.26	67.0235
2.254	67.6714
2.248	68.2663
2.242	68.9149
2.236	69.6302
2.23	70.1634
2.224	70.7589
2.218	71.1898
2.212	71.6706
2.206	72.1388
2.2	72.5527
2.194	73.0589
2.188	73.4025
2.182	73.9044
2.176	74.4508
2.17	74.7753
2.164	75.1641
2.158	75.4964
2.152	75.7825
2.146	76.0289
2.14	76.1477
2.134	76.2998
2.128	76.3112
2.122	76.2809
2.116	76.1898
2.11	76.1098
2.104	76.0008
2.098	76.0501
2.092	76.2821
2.086	76.5002
2.08	76.6528
2.074	76.8615
2.068	77.065
2.062	77.2043
2.056	77.3899
2.05	77.5082
2.044	77.6631
2.038	77.8297
2.032	78.0058
2.026	78.0821
2.02	78.1125
2.014	78.1882
2.008	78.414
2.002	78.4786
1.996	78.4534
1.99	78.5457
1.984	78.4249
1.978	78.4188
1.972	78.3502
1.966	78.3151
1.96	78.3176
1.954	78.3973
1.948	78.373
1.942	78.4209
1.936	78.4957
1.93	78.5242
1.924	78.7569
1.918	78.7316
1.912	78.7998
1.906	78.7466
1.9	78.5426
1.894	78.2264
1.888	77.8321
1.882	77.3911
1.876	76.9574
1.87	76.6094
1.864	76.4474
1.858	76.5714
1.852	76.9763
1.846	77.3727
1.84	77.9049
1.834	78.3598
1.828	78.9243
1.822	79.3607
1.816	79.6694
1.81	79.9269
1.804	80.1769
1.798	80.4158
1.792	80.6028
1.786	80.835
1.78	81.1114
1.774	81.291
1.768	81.556
1.762	81.7858
1.756	82.0125
1.75	82.2673
1.744	82.4761
1.738	82.7472
1.732	83.0077
1.726	83.2076
1.72	83.3149
1.714	83.5671
1.708	83.6402
1.702	83.7921
1.696	83.9657
1.69	83.9463
1.684	84.0589
1.678	84.1019
1.672	84.2705
1.666	84.2408
1.66	84.3479
1.654	84.4225
1.648	84.5355
1.642	84.6038
1.636	84.6452
1.63	84.7747
1.624	84.887
1.618	84.908
1.612	84.9768
1.606	85.0314
1.6	85.0205
1.594	85.0037
1.588	84.9964
1.582	84.981
1.576	85.0444
1.57	84.9574
1.564	84.8874
1.558	84.7057
1.552	84.5685
1.546	84.4712
1.54	84.4271
1.534	84.2762
1.528	84.3
1.522	84.2861
1.516	84.331
1.51	84.2882
1.504	84.1231
1.498	83.8543
1.492	83.2152
1.486	82.6616
1.48	82.5038
1.474	82.6688
1.468	83.3211
1.462	83.9774
1.456	84.5189
1.45	84.9508
1.444	85.1037
1.438	85.1875
1.432	85.2495
1.426	85.0812
1.42	84.8904
1.414	84.779
1.408	84.4867
1.402	84.2747
1.396	84.0515
1.39	83.8328
1.384	83.4934
1.378	83.1943
1.372	82.9074
1.366	82.4747
1.36	82.0506
1.354	81.7041
1.348	81.2566
1.342	80.8441
1.336	80.4107
1.33	79.9119
1.324	79.474
1.318	79.018
1.312	78.4851
1.306	77.9986
1.3	77.5372
1.294	77.06
1.288	76.5711
1.282	76.1084
1.276	75.5311
1.27	75.0397
1.264	74.4753
1.258	73.911
1.252	73.4284
1.246	72.895
1.24	72.3896
1.234	71.7972
1.228	71.2934
1.222	70.7126
1.216	70.2021
1.21	69.6087
1.204	69.1166
1.198	68.4989
1.192	67.9708
1.186	67.4523
1.18	66.9296
1.174	66.3322
1.168	65.8179
1.162	65.2996
1.156	64.7077
1.15	64.1898
1.144	63.5572
1.138	63.0096
1.132	62.5074
1.126	61.8901
1.12	61.3498
1.114	60.8316
1.108	60.2856
1.102	59.7278
1.096	59.1662
1.09	58.6644
1.084	58.0677
1.078	57.5275
1.072	57.0068
1.066	56.4243
1.06	55.7602
1.054	55.1896
1.048	54.7536
1.042	54.2187
1.036	53.7689
1.03	53.1237
1.024	52.5586
1.018	52.0463
1.012	51.6331
1.006	51.0602
1	50.6328
0.994	50.0745
0.988	49.6934
0.982	49.2017
0.976	48.7703
0.97	48.4451
0.964	48.1004
0.958	47.7564
0.952	47.4815
0.946	47.2767
0.94	47.0446
0.934	46.9386
0.928	46.8756
0.922	46.8171
0.916	46.7933
0.91	46.8388
0.904	46.9669
0.898	47.0458
0.892	47.2563
0.886	47.4989
0.88	47.8205
0.874	48.1719
0.868	48.5787
0.862	49.0225
0.856	49.8373
0.85	50.4496
0.844	50.9752
0.838	51.646
0.832	52.366
0.826	53.1382
0.82	53.9314
0.814	54.7646
0.808	55.6658
0.802	56.614
0.796	57.5175
0.79	58.4184
0.784	59.3798
0.778	60.3228
0.772	61.224
0.766	62.0045
0.76	62.7495
0.754	63.3544
0.748	63.7582
0.742	64.0743
0.736	64.1293
0.73	64.0142
0.724	63.6761
0.718	63.154
0.712	62.4772
0.706	61.6886
0.7	60.7919
0.694	59.8634
0.688	58.8636
0.682	57.8265
0.676	56.7851
0.67	55.6809
0.664	54.5492
0.658	53.3563
0.652	52.0801
0.646	50.7271
0.64	49.2584
0.634	47.6846
0.628	46.0221
0.622	44.2719
0.616	42.4729
0.61	40.6789
0.604	38.9169
0.598	37.2577
0.592	35.7036
0.586	34.3136
0.58	33.0132
0.574	31.8876
0.568	30.8512
0.562	29.901
0.556	28.9875
0.55	28.153
0.544	27.3494
0.538	26.5513
0.532	25.7364
0.526	24.903
0.52	24.0196
0.514	23.0642
0.508	21.9719
0.502	20.7326
0.496	19.3154
0.49	17.7714
0.484	16.0787
0.478	14.5024
0.472	13.0499
0.466	11.7728
0.46	10.5909
0.454	9.38026
0.448	8.19815
0.442	7.25552
0.436	6.85121
0.43	6.7307
0.424	6.4322
0.418	5.93048
0.412	5.31797
0.406	4.70223
0.4	4.18459
