Name: Graphite C
Type: Mineral
Class: Elements
Particle Size: 0-45um
Sample No.: E-1A
Owner: JPL
Origin: Mexico, Sonora, Morelos, San Jose Mine.
Measurement: Hemispherical reflectance
X Units: Wavelength (micrometers)
Y Units: Reflectance (percent)
wavelength	value
2.5	5.92608
2.494	5.99213
2.488	6.07889
2.482	5.94369
2.476	5.99635
2.47	6.1261
2.464	5.99849
2.458	6.02436
2.452	6.05798
2.446	6.00874
2.44	6.10726
2.434	6.07689
2.428	6.07158
2.422	6.14523
2.416	6.17689
2.41	6.11752
2.404	6.08362
2.398	6.06825
2.392	6.13594
2.386	6.10987
2.38	6.10529
2.374	6.13504
2.368	6.12894
2.362	6.10414
2.356	6.09802
2.35	6.10206
2.344	6.12505
2.338	6.13157
2.332	6.1419
2.326	6.11227
2.32	6.14693
2.314	6.14971
2.308	6.11122
2.302	6.08286
2.296	6.09985
2.29	6.06976
2.284	6.12397
2.278	6.13069
2.272	6.08771
2.266	6.05828
2.26	6.09089
2.254	6.02018
2.248	6.05659
2.242	6.10456
2.236	6.12056
2.23	6.08695
2.224	6.07475
2.218	6.06736
2.212	6.08007
2.206	6.06218
2.2	6.04643
2.194	6.06179
2.188	6.06876
2.182	6.13148
2.176	6.06405
2.17	6.06864
2.164	6.08769
2.158	6.06845
2.152	6.06291
2.146	6.0576
2.14	6.02724
2.134	6.0917
2.128	6.06131
2.122	5.99013
2.116	6.00461
2.11	5.94602
2.104	5.96232
2.098	5.94122
2.092	5.9121
2.086	5.9075
2.08	5.91118
2.074	5.84743
2.068	5.90301
2.062	5.89424
2.056	5.87736
2.05	5.91597
2.044	5.89704
2.038	5.86447
2.032	5.87596
2.026	5.86283
2.02	5.89112
2.014	5.88543
2.008	5.77337
2.002	5.83153
1.996	5.74725
1.99	5.74688
1.984	5.80268
1.978	5.82303
1.972	5.82344
1.966	5.70267
1.96	5.73049
1.954	5.83615
1.948	5.78109
1.942	5.81871
1.936	5.75322
1.93	5.75774
1.924	5.71656
1.918	5.76924
1.912	5.73876
1.906	5.73774
1.9	5.75098
1.894	5.73094
1.888	5.76139
1.882	5.72771
1.876	5.81653
1.87	5.68621
1.864	5.7383
1.858	5.68325
1.852	5.77276
1.846	5.72698
1.84	5.69378
1.834	5.7047
1.828	5.68052
1.822	5.72705
1.816	5.67584
1.81	5.693
1.804	5.70919
1.798	5.68232
1.792	5.6634
1.786	5.72434
1.78	5.61527
1.774	5.69081
1.768	5.67654
1.762	5.69582
1.756	5.5918
1.75	5.61387
1.744	5.59277
1.738	5.61748
1.732	5.62444
1.726	5.66459
1.72	5.66002
1.714	5.66417
1.708	5.6946
1.702	5.6436
1.696	5.60179
1.69	5.60522
1.684	5.67947
1.678	5.65301
1.672	5.5599
1.666	5.65208
1.66	5.54858
1.654	5.54736
1.648	5.58866
1.642	5.64549
1.636	5.62155
1.63	5.57801
1.624	5.51563
1.618	5.53496
1.612	5.54244
1.606	5.57682
1.6	5.50181
1.594	5.50225
1.588	5.53653
1.582	5.48677
1.576	5.49502
1.57	5.45474
1.564	5.39076
1.558	5.38652
1.552	5.4535
1.546	5.47083
1.54	5.41978
1.534	5.37611
1.528	5.42941
1.522	5.39852
1.516	5.39006
1.51	5.35812
1.504	5.368
1.498	5.34882
1.492	5.35986
1.486	5.32044
1.48	5.33452
1.474	5.30216
1.468	5.31068
1.462	5.26394
1.456	5.29897
1.45	5.27569
1.444	5.28324
1.438	5.244
1.432	5.33001
1.426	5.18278
1.42	5.21982
1.414	5.18776
1.408	5.18186
1.402	5.19889
1.396	5.26379
1.39	5.19248
1.384	5.17423
1.378	5.27561
1.372	5.19134
1.366	5.17258
1.36	5.15284
1.354	5.25291
1.348	5.11818
1.342	5.08006
1.336	5.14985
1.33	5.03729
1.324	5.04793
1.318	5.03196
1.312	5.05052
1.306	5.03592
1.3	5.05888
1.294	5.10515
1.288	5.06956
1.282	5.06528
1.276	5.03877
1.27	5.02354
1.264	5.00128
1.258	5.03162
1.252	5.09526
1.246	5.04992
1.24	4.99656
1.234	4.95356
1.228	5.04285
1.222	4.96104
1.216	4.99805
1.21	5.01423
1.204	5.03185
1.198	4.91877
1.192	4.97217
1.186	4.9625
1.18	4.98724
1.174	4.97579
1.168	4.97789
1.162	4.94882
1.156	4.9238
1.15	4.93415
1.144	4.89552
1.138	4.95007
1.132	4.93409
1.126	4.87612
1.12	4.92729
1.114	4.88187
1.108	4.89294
1.102	4.81544
1.096	4.84934
1.09	4.84603
1.084	4.8647
1.078	4.80927
1.072	4.86956
1.066	4.77626
1.06	4.75813
1.054	4.81428
1.048	4.81816
1.042	4.77637
1.036	4.81475
1.03	4.66585
1.024	4.79153
1.018	4.72114
1.012	4.76424
1.006	4.71938
1	4.68433
0.994	4.74643
0.988	4.66546
0.982	4.64584
0.976	4.69159
0.97	4.71527
0.964	4.64269
0.958	4.61866
0.952	4.6484
0.946	4.65315
0.94	4.63067
0.934	4.62056
0.928	4.63344
0.922	4.61036
0.916	4.53326
0.91	4.59913
0.904	4.56183
0.898	4.50455
0.892	4.5814
0.886	4.55502
0.88	4.51326
0.874	4.4828
0.868	4.52372
0.862	4.54107
0.856	4.80662
0.85	4.80313
0.844	4.78489
0.838	4.7794
0.832	4.75862
0.826	4.75782
0.82	4.74053
0.814	4.73769
0.808	4.72227
0.802	4.70778
0.796	4.69889
0.79	4.69081
0.784	4.67833
0.778	4.67155
0.772	4.66305
0.766	4.65253
0.76	4.64731
0.754	4.63518
0.748	4.62115
0.742	4.61596
0.736	4.60689
0.73	4.59586
0.724	4.59093
0.718	4.58539
0.712	4.58129
0.706	4.57693
0.7	4.57034
0.694	4.5689
0.688	4.56304
0.682	4.5588
0.676	4.56061
0.67	4.55429
0.664	4.55199
0.658	4.55381
0.652	4.55176
0.646	4.55145
0.64	4.54948
0.634	4.55045
0.628	4.55043
0.622	4.55179
0.616	4.5539
0.61	4.55647
0.604	4.55954
0.598	4.56461
0.592	4.56984
0.586	4.57374
0.58	4.57889
0.574	4.58521
0.568	4.59274
0.562	4.5982
0.556	4.6091
0.55	4.61786
0.544	4.62757
0.538	4.63836
0.532	4.64645
0.526	4.65742
0.52	4.67233
0.514	4.68658
0.508	4.70663
0.502	4.72812
0.496	4.74599
0.49	4.77297
0.484	4.80475
0.478	4.81667
0.472	4.84108
0.466	4.87135
0.46	4.89968
0.454	4.93631
0.448	4.96862
0.442	5.01443
0.436	5.05302
0.43	5.10227
0.424	5.15364
0.418	5.20936
0.412	5.27004
0.406	5.33555
0.4	5.41549
