Name: Gibbsite Al(OH)_3
Type: Mineral
Class: Hydroxides
Particle Size: <45 um
Sample No.: OH-3A
Owner: JPL
Origin: None.
Description: Synthetic gibbsite.
Measurement: Hemispherical reflectance
X Units: Wavelength (micrometers)
Y Units: Reflectance (percent)
wavelength	value
2.5	20.6872
2.494	20.8062
2.488	21.1471
2.482	21.6563
2.476	22.2974
2.47	22.9938
2.464	23.2858
2.458	23.4587
2.452	23.2495
2.446	22.8179
2.44	22.2247
2.434	21.6358
2.428	21.3178
2.422	21.0065
2.416	20.598
2.41	20.1445
2.404	19.5411
2.398	19.067
2.392	18.8392
2.386	18.6551
2.38	18.4917
2.374	18.4338
2.368	18.2115
2.362	18.0058
2.356	17.9965
2.35	18.3823
2.344	19.1479
2.338	19.7308
2.332	19.7969
2.326	19.34
2.32	18.6453
2.314	18.1313
2.308	18.1551
2.302	18.1244
2.296	17.8983
2.29	17.2317
2.284	16.1919
2.278	14.5485
2.272	12.9096
2.266	12.2309
2.26	13.0795
2.254	14.3243
2.248	16.0533
2.242	19.0867
2.236	22.2228
2.23	24.4242
2.224	25.6709
2.218	26.5813
2.212	27.2864
2.206	28.0789
2.2	29.9744
2.194	32.2813
2.188	33.7985
2.182	34.6856
2.176	35.9661
2.17	38.0195
2.164	40.1545
2.158	42.6592
2.152	45.0986
2.146	47.0546
2.14	48.0383
2.134	48.6288
2.128	49.2878
2.122	50.4979
2.116	51.797
2.11	52.2584
2.104	52.3878
2.098	52.527
2.092	52.6556
2.086	52.6851
2.08	52.8883
2.074	53.1075
2.068	53.5044
2.062	53.8233
2.056	54.0722
2.05	54.3688
2.044	54.5855
2.038	54.8214
2.032	55.1069
2.026	55.2677
2.02	55.5455
2.014	55.9946
2.008	56.3012
2.002	56.7645
1.996	57.0147
1.99	57.3809
1.984	57.6451
1.978	58.0055
1.972	58.3364
1.966	58.6492
1.96	58.9933
1.954	59.3663
1.948	59.8068
1.942	60.1943
1.936	60.6184
1.93	61.0112
1.924	61.3011
1.918	61.7697
1.912	62.0442
1.906	62.4606
1.9	62.5978
1.894	62.6644
1.888	62.9484
1.882	63.5185
1.876	63.9912
1.87	64.4946
1.864	64.6839
1.858	64.5148
1.852	64.4959
1.846	65.098
1.84	65.4663
1.834	65.5207
1.828	65.7097
1.822	66.1391
1.816	67.2692
1.81	68.5924
1.804	69.4277
1.798	69.886
1.792	70.4681
1.786	71.1859
1.78	72.4073
1.774	73.6288
1.768	74.6258
1.762	75.2784
1.756	75.6931
1.75	76.0369
1.744	76.2421
1.738	76.4129
1.732	76.4908
1.726	76.5616
1.72	76.6131
1.714	76.4927
1.708	76.3695
1.702	76.1109
1.696	75.9862
1.69	75.7529
1.684	75.4931
1.678	75.3293
1.672	75.0052
1.666	74.7901
1.66	74.2926
1.654	73.9446
1.648	73.5341
1.642	73.1883
1.636	72.7042
1.63	71.9882
1.624	71.3647
1.618	70.4166
1.612	69.4458
1.606	68.2057
1.6	66.7764
1.594	65.1887
1.588	63.7278
1.582	62.5756
1.576	61.3883
1.57	59.7087
1.564	57.1197
1.558	53.2698
1.552	50.0362
1.546	50.7854
1.54	53.29
1.534	54.8664
1.528	54.7124
1.522	52.1336
1.516	52.1733
1.51	56.5169
1.504	59.5961
1.498	61.2714
1.492	61.9849
1.486	61.2233
1.48	58.8956
1.474	56.3912
1.468	50.3177
1.462	38.2321
1.456	43.7024
1.45	36.2199
1.444	43.405
1.438	40.4952
1.432	46.565
1.426	52.5063
1.42	42.5567
1.414	49.7584
1.408	58.7025
1.402	55.4862
1.396	57.7587
1.39	69.5387
1.384	72.805
1.378	75.2359
1.372	77.1965
1.366	78.5477
1.36	79.2796
1.354	79.675
1.348	79.3679
1.342	79.1779
1.336	79.0567
1.33	79.0553
1.324	78.3099
1.318	78.144
1.312	78.2265
1.306	78.2327
1.3	79.2208
1.294	80.1973
1.288	80.7385
1.282	80.6491
1.276	79.9101
1.27	80.3738
1.264	82.6201
1.258	84.3321
1.252	85.7282
1.246	86.9404
1.24	87.9059
1.234	88.8517
1.228	89.5839
1.222	90.1879
1.216	90.5231
1.21	90.8017
1.204	90.8901
1.198	90.9941
1.192	91.1917
1.186	91.3133
1.18	91.4741
1.174	91.5389
1.168	91.7097
1.162	91.7921
1.156	91.9138
1.15	92.0545
1.144	92.2943
1.138	92.3411
1.132	92.549
1.126	92.5554
1.12	92.739
1.114	92.8889
1.108	92.9942
1.102	93.0463
1.096	93.2823
1.09	93.2687
1.084	93.279
1.078	93.356
1.072	93.5944
1.066	93.528
1.06	93.3906
1.054	93.3675
1.048	93.3615
1.042	93.1986
1.036	93.145
1.03	92.8719
1.024	92.6113
1.018	91.9523
1.012	91.1269
1.006	89.5766
1	86.8931
0.994	87.7226
0.988	89.1421
0.982	89.1175
0.976	88.4126
0.97	88.6605
0.964	89.2941
0.958	90.2683
0.952	91.2617
0.946	92.0218
0.94	92.5209
0.934	92.7321
0.928	92.6252
0.922	92.8843
0.916	93.1132
0.91	93.3389
0.904	93.4556
0.898	93.6551
0.892	93.82
0.886	94.0136
0.88	94.0829
0.874	94.2181
0.868	94.2266
0.862	94.2186
0.856	94.468
0.85	94.5707
0.844	94.6186
0.838	94.6805
0.832	94.727
0.826	94.7543
0.82	94.7741
0.814	94.7757
0.808	94.7723
0.802	94.8148
0.796	94.6202
0.79	94.6099
0.784	94.4941
0.778	94.4625
0.772	94.3144
0.766	94.1295
0.76	94.2523
0.754	94.3178
0.748	94.3144
0.742	94.385
0.736	94.4728
0.73	94.5908
0.724	94.6192
0.718	94.6494
0.712	94.7113
0.706	94.7212
0.7	94.7401
0.694	94.7496
0.688	94.7618
0.682	94.7554
0.676	94.764
0.67	94.7452
0.664	94.764
0.658	94.7494
0.652	94.7161
0.646	94.7092
0.64	94.7031
0.634	94.6686
0.628	94.6595
0.622	94.6386
0.616	94.608
0.61	94.5983
0.604	94.583
0.598	94.6211
0.592	94.6516
0.586	94.6228
0.58	94.5889
0.574	94.5618
0.568	94.4722
0.562	94.4055
0.556	94.348
0.55	94.2897
0.544	94.1976
0.538	94.0798
0.532	94.0269
0.526	93.9036
0.52	93.7949
0.514	93.7207
0.508	93.5771
0.502	93.5343
0.496	93.4258
0.49	93.3215
0.484	93.2359
0.478	93.074
0.472	92.9638
0.466	92.8604
0.46	92.7083
0.454	92.6304
0.448	92.5374
0.442	92.4111
0.436	92.2867
0.43	92.1984
0.424	92.1034
0.418	92.0355
0.412	91.9722
0.406	91.8684
0.4	91.8104
