Name: Alluvial sand
Type: Soils
Class: Entisol
Particle Size: see additional information
Sample No.: fgg027
Owner: University of NSW
Origin: Fowlers Gap, western New South Wales, Australia
Description: Parent material consists of quartz-rich sandstone
Measurement: Directional hemispherical reflectance
X Units: Wavelength (micrometers)
Y Units: Reflectance (percent)
wavelength	value
14.0131	2.27764
13.7895	2.64819
13.5729	3.13224
13.363	3.18857
13.1595	3.57028
12.9621	5.05755
12.7705	6.6102
12.5845	4.98012
12.4039	3.48953
12.2284	1.40052
12.0578	1.95499
11.8918	2.46746
11.7304	2.5938
11.5733	2.89077
11.4203	3.27023
11.2714	3.60437
11.1263	3.98129
10.9848	4.51543
10.8469	4.13756
10.7125	4.32685
10.5813	4.53645
10.4533	4.70765
10.3284	5.39334
10.2064	6.3478
10.0872	7.53812
9.9708	9.13357
9.8571	9.93856
9.7459	11.3161
9.6372	13.3669
9.5309	15.3072
9.427	19.1033
9.3252	25.323
9.2257	26.3349
9.1282	25.8447
9.0328	24.38
8.9394	24.3427
8.8478	25.1954
8.7582	24.081
8.6703	20.957
8.5842	21.4406
8.4997	24.5331
8.4169	25.646
8.3357	27.1356
8.2561	28.5577
8.178	27.5932
8.1013	19.9793
8.0261	13.0701
7.9522	8.31907
7.8797	4.69022
7.8085	3.06116
7.7386	2.25174
7.6699	1.51268
7.6024	1.14753
7.5361	0.77891
7.4709	0.74634
7.4069	0.67007
7.344	0.62512
7.2821	0.7208
7.2212	0.66008
7.1614	0.5316
7.1025	0.77492
7.0446	0.78835
6.9877	0.87305
6.9316	0.87157
6.8764	0.79166
6.8222	0.84299
6.7687	0.81672
6.7161	0.88817
6.6643	1.01546
6.6133	0.87855
6.5631	0.96449
6.5136	0.90881
6.4649	1.29985
6.4169	1.29325
6.3696	1.11857
6.323	1.13077
6.277	1.12848
6.2318	1.0539
6.1872	0.96856
6.1432	0.92809
6.0998	1.03014
6.0571	1.09299
6.0149	1.10017
5.9733	1.02053
5.9323	1.08091
5.8919	1.20734
5.852	1.43872
5.8126	1.62135
5.7738	2.04897
5.7354	2.25607
5.6976	2.37053
5.6603	1.86439
5.6235	1.38005
5.5871	1.38154
5.5512	1.51694
5.5158	1.64244
5.4808	1.8177
5.4463	1.78309
5.4121	1.62702
5.3785	1.43364
5.3452	1.44632
5.3123	1.37201
5.2799	1.49161
5.2478	1.48792
5.2161	1.84029
5.1848	1.93966
5.1539	1.96471
5.1234	1.86844
5.0932	1.9125
5.0633	1.86983
5.0338	1.89263
5.0047	1.85099
4.9759	1.9527
4.9474	2.32287
4.9192	2.96893
4.8914	5.22852
4.8638	8.59624
4.8366	11.3516
4.8097	13.3752
4.7831	15.1335
4.7567	16.6285
4.7307	17.421
4.7049	16.4618
4.6795	14.3407
4.6543	17.1967
4.6293	20.317
4.6047	22.0562
4.5802	22.7067
4.5561	21.8772
4.5322	19.0446
4.5086	14.9184
4.4852	12.5475
4.462	12.127
4.4391	13.665
4.4164	15.0822
4.3939	17.2355
4.3717	20.0115
4.3497	22.4706
4.3279	23.6131
4.3063	23.4546
4.285	23.2545
4.2638	24.1159
4.2429	24.9561
4.2222	25.3354
4.2017	25.3785
4.1813	26.2325
4.1612	27.2606
4.1412	28.1678
4.1215	29.3573
4.1019	30.6757
4.0826	31.9427
4.0634	32.7054
4.0443	32.7398
4.0255	32.6477
4.0068	32.6422
3.9883	32.9485
3.97	33.5863
3.9519	34.5082
3.9339	35.1197
3.916	35.3408
3.8984	35.0938
3.8809	34.3316
3.8635	33.6581
3.8463	33.6426
3.8293	33.701
3.8124	33.8137
3.7956	33.6333
3.779	33.1595
3.7626	32.2751
3.7463	31.5646
3.7301	31.3881
3.7141	31.6639
3.6982	31.9982
3.6824	32.395
3.6668	32.6658
3.6513	32.556
3.6359	32.0947
3.6207	31.6809
3.6056	31.1547
3.5906	30.6485
3.5758	30.101
3.561	29.7248
3.5464	29.1609
3.5319	28.6884
3.5175	27.7187
3.5033	26.7779
3.4891	26.6377
3.4751	25.9071
3.4612	25.3664
3.4474	24.561
3.4337	23.6537
3.4201	22.2744
3.4066	21.6281
3.3932	21.3596
3.3799	20.602
3.3668	20.1099
3.3537	19.5
3.3407	18.8401
3.3279	17.9042
3.3151	17.2801
3.3024	16.5756
3.2899	15.9284
3.2774	15.1753
3.265	14.578
3.2527	13.8144
3.2405	13.1818
3.2284	12.6577
3.2164	12.0222
3.2045	11.3507
3.1926	10.8715
3.1809	10.3335
3.1692	9.75033
3.1576	9.34183
3.1461	8.65932
3.1347	8.55224
3.1234	8.06145
3.1121	7.72881
3.101	7.42394
3.0899	7.28271
3.0789	7.05305
3.068	6.98119
3.0571	6.7568
3.0463	6.65793
3.0356	6.53211
3.025	6.34374
3.0144	6.03126
3.004	5.99931
2.9936	5.75599
2.9832	5.86001
2.973	5.42189
2.9628	5.25001
2.9526	5.10249
2.9426	5.36225
2.9326	5.40522
2.9227	5.28581
2.9128	5.24604
2.903	5.40356
2.8933	5.67813
2.8837	5.68273
2.8741	5.63843
2.8646	6.02075
2.8551	5.93902
2.8457	6.0969
2.8363	6.1319
2.8271	6.2809
2.8178	6.17123
2.8087	5.78875
2.7996	5.85687
2.7906	5.44123
2.7816	5.28705
2.7726	4.77917
2.7638	3.92103
2.755	4.28026
2.7462	4.7079
2.7375	5.05217
2.7289	5.8686
2.7203	7.1769
2.7117	7.10989
2.7033	5.92104
2.6948	12.3331
2.6864	21.3782
2.6781	28.1429
2.6698	32.5242
2.6616	35.0752
2.6535	37.0733
2.6453	38.5732
2.6373	39.4845
2.6292	40.8099
2.6213	41.5132
2.6133	41.9643
2.6054	42.5229
2.5976	42.733
2.5898	43.1147
2.5821	43.4402
2.5744	43.7878
2.5668	43.9464
2.5592	44.488
2.5516	44.7505
2.5441	44.8584
2.5366	45.0947
2.5292	45.3999
2.5218	45.4667
2.5145	45.6466
2.5072	45.9772
2.4999	46.2164
2.4927	46.457
2.4855	46.9545
2.4784	47.3969
2.4713	47.8122
2.4643	48.1108
2.4573	48.3324
2.4503	48.6313
2.4434	48.9734
2.4365	49.5197
2.4296	50.1593
2.4228	50.6433
2.4161	51.3717
2.4093	51.659
2.4026	51.9576
2.396	51.9378
2.3893	51.9302
2.3827	51.9799
2.3762	52.573
2.3697	52.9835
2.3632	53.2891
2.3567	53.3733
2.3503	53.8621
2.344	54.5096
2.3376	54.8048
2.3313	55.4727
2.325	55.7998
2.3188	56.2831
2.3126	56.58
2.3064	57.0328
2.3003	57.2583
2.2942	57.7098
2.2881	57.8693
2.2821	58.1852
2.2761	58.5023
2.2701	58.4954
2.2641	58.3165
2.2582	58.2286
2.2523	57.8915
2.2465	57.4621
2.2406	57.241
2.2348	57.1381
2.2291	56.9338
2.2233	56.5298
2.2176	55.4852
2.212	53.1216
2.2063	52.2447
2.2007	54.5577
2.1951	55.4124
2.1895	56.1726
2.184	57.0871
2.1785	57.5661
2.173	57.8903
2.1676	58.3017
2.1622	58.5631
2.1568	59.2331
2.1514	60.004
2.146	60.7028
2.1407	61.5424
2.1354	61.6923
2.1302	61.8267
2.1249	61.9636
2.1197	62.0229
2.1145	62.15
2.1094	61.9889
2.1042	62.0857
2.0991	62.2749
2.094	62.1425
2.089	62.1376
2.0839	62.1093
2.0789	62.2566
2.0739	62.0662
2.069	62.4007
2.064	62.1609
2.0591	62.0213
2.0542	61.8434
2.0493	61.9135
2.0445	61.7354
2.0397	61.6588
2.0349	61.4798
2.0301	61.1404
2.0253	61.1079
2.0206	60.6991
2.0159	60.6715
2.0112	60.1435
2.0065	59.7552
2.0019	59.6656
