Name: Rhodonite (Mn,Ca)SiO_3
Type: Mineral
Class: Silicates
Subclass: Inosilicates
Particle Size: 0-45um
Sample No.: IN-1A
Owner: JPL
Wavelength Range: VNIR-SWIR
Origin: USA, California, Fresno County
Measurement: Hemispherical reflectance
X Units: Wavelength (micrometers)
Y Units: Reflectance (percent)
wavelength	value
0.4	44.07
0.403	43.66
0.406	42.4
0.409	42.34
0.412	42.54
0.415	43
0.418	44.11
0.421	44.2
0.424	44.85
0.427	45.09
0.43	45.31
0.433	45.79
0.436	46.17
0.439	46.68
0.442	47.01
0.445	47.46
0.448	47.63
0.451	47.93
0.454	48.12
0.457	48.27
0.46	48.55
0.463	48.99
0.466	49.11
0.469	49.5
0.472	49.85
0.475	50.11
0.478	50.16
0.481	50.43
0.484	50.69
0.487	50.86
0.49	51.08
0.493	51.39
0.496	51.4
0.499	51.73
0.502	51.88
0.505	51.99
0.508	52.03
0.511	52.35
0.514	52.32
0.517	52.24
0.52	52.52
0.523	52.53
0.526	52.66
0.529	52.87
0.532	52.87
0.535	52.92
0.538	53.32
0.541	53.39
0.544	53.6
0.547	54.04
0.55	54.38
0.553	54.86
0.556	55.35
0.559	55.83
0.562	56.7
0.565	57.3
0.568	57.71
0.571	58.12
0.574	58.68
0.577	59.02
0.58	59.51
0.583	60.03
0.586	60.44
0.589	60.91
0.592	61.41
0.595	62.01
0.598	62.18
0.601	62.62
0.604	63.14
0.607	63.3
0.61	63.55
0.613	63.87
0.616	64.19
0.619	64.29
0.622	64.44
0.625	64.82
0.628	65
0.631	65.12
0.634	65.46
0.637	65.64
0.64	65.78
0.643	65.94
0.646	66.18
0.649	66.2
0.652	66.46
0.655	66.71
0.658	66.7
0.661	66.81
0.664	67.04
0.667	67.23
0.67	67.39
0.673	67.45
0.676	67.65
0.679	67.85
0.682	67.77
0.685	67.98
0.688	68.25
0.691	68.21
0.694	68.26
0.697	68.37
0.7	68.37
0.703	68.73
0.706	68.63
0.709	68.66
0.712	69.02
0.715	69.06
0.718	69.05
0.721	69.16
0.724	69.4
0.727	69.34
0.73	69.52
0.733	69.6
0.736	69.68
0.739	69.68
0.742	69.84
0.745	69.78
0.748	69.95
0.751	70.04
0.754	70.11
0.757	70.01
0.76	70.17
0.763	70.34
0.766	70.23
0.769	70.33
0.772	70.5
0.775	70.46
0.778	70.46
0.781	70.86
0.784	70.63
0.787	70.59
0.79	70.73
0.793	70.73
0.796	70.69
0.799	70.72
0.808	70.51
0.82	70.41
0.832	69.89
0.844	69.12
0.856	68.35
0.868	67.3
0.88	65.73
0.892	64.31
0.904	62.92
0.916	61.13
0.928	59.36
0.94	57.58
0.952	56.01
0.964	54.54
0.976	53.06
0.988	51.78
1	50.74
1.012	50
1.024	49.64
1.036	49.4
1.048	49.39
1.06	49.76
1.072	50.33
1.084	51.19
1.096	52.05
1.108	53.15
1.12	54.15
1.132	55.29
1.144	56.47
1.156	57.68
1.168	58.79
1.18	59.96
1.192	61.07
1.204	61.96
1.216	63.02
1.228	64.06
1.24	65.14
1.252	65.94
1.264	66.74
1.276	67.38
1.288	68.04
1.3	68.53
1.312	68.97
1.324	69.37
1.336	69.66
1.348	69.84
1.36	70.06
1.372	70.14
1.384	70.38
1.396	70.29
1.408	70.1
1.42	70.19
1.432	70.44
1.444	70.57
1.456	70.64
1.468	70.58
1.48	70.64
1.492	70.83
1.504	70.89
1.516	70.93
1.528	70.93
1.54	70.95
1.552	70.97
1.564	71.24
1.576	71.31
1.588	71.31
1.6	71.47
1.612	71.5
1.624	71.68
1.636	71.85
1.648	71.97
1.66	72.09
1.672	72.18
1.684	72.26
1.696	72.47
1.708	72.51
1.72	72.64
1.732	72.47
1.744	72.58
1.756	72.66
1.768	72.57
1.78	72.53
1.792	72.76
1.804	72.72
1.816	72.54
1.828	72.51
1.84	72.43
1.852	72.29
1.864	71.98
1.876	71.76
1.888	71.32
1.9	70.7
1.912	70.43
1.924	70.37
1.936	70.31
1.948	70.3
1.96	70.39
1.972	70.42
1.984	70.35
1.996	70.48
2.008	70.56
2.02	70.56
2.032	70.38
2.044	70.41
2.056	70.42
2.068	70.31
2.08	70.27
2.092	70.21
2.104	70.3
2.116	70.35
2.128	70.24
2.14	70.02
2.152	69.77
2.164	69.8
2.176	69.63
2.188	69.38
2.2	69.36
2.212	69.11
2.224	69.2
2.236	69.15
2.248	69.19
2.26	69.26
2.272	69.23
2.284	69.12
2.296	69.23
2.308	69.23
2.32	69.38
2.332	69.4
2.344	69.46
2.356	69.48
2.368	69.61
2.38	69.78
2.392	69.66
2.404	69.68
2.416	69.69
2.428	69.72
2.44	69.71
2.452	69.61
2.464	69.56
2.476	69.65
2.488	69.85
2.5	69.89
