Name: Sphalerite (Zn,Fe)S
Type: Mineral
Class: Sulfides
Particle Size: 125-500um
Sample No.: S-1A
Owner: JPL
Origin: USA, Oklahoma, Ottawa County, Picher.
Measurement: Hemispherical reflectance
X Units: Wavelength (micrometers)
Y Units: Reflectance (percent)
wavelength	value
2.5	5.57016
2.494	5.59317
2.488	5.63974
2.482	5.76237
2.476	5.82493
2.47	5.59727
2.464	5.75554
2.458	5.80535
2.452	5.72023
2.446	5.76851
2.44	5.75087
2.434	5.86127
2.428	5.86564
2.422	5.80202
2.416	5.89247
2.41	5.92982
2.404	6.01993
2.398	5.99644
2.392	6.03573
2.386	6.06321
2.38	6.08252
2.374	6.10567
2.368	6.17483
2.362	6.16751
2.356	6.26833
2.35	6.27848
2.344	6.29171
2.338	6.38083
2.332	6.38043
2.326	6.44172
2.32	6.50995
2.314	6.59009
2.308	6.61394
2.302	6.70391
2.296	6.7502
2.29	6.87573
2.284	6.95228
2.278	7.00164
2.272	7.14782
2.266	7.168
2.26	7.2683
2.254	7.36009
2.248	7.49216
2.242	7.73321
2.236	7.82586
2.23	7.87641
2.224	8.06823
2.218	8.18261
2.212	8.40318
2.206	8.52638
2.2	8.79298
2.194	8.95882
2.188	9.26608
2.182	9.43199
2.176	9.66859
2.17	9.8648
2.164	10.1641
2.158	10.4356
2.152	10.6912
2.146	11.0166
2.14	11.3376
2.134	11.6941
2.128	11.9779
2.122	12.1834
2.116	12.5096
2.11	12.8303
2.104	13.1199
2.098	13.494
2.092	13.9577
2.086	14.3612
2.08	14.8252
2.074	15.2252
2.068	15.7173
2.062	16.1409
2.056	16.666
2.05	17.1274
2.044	17.6475
2.038	18.1503
2.032	18.6793
2.026	19.1789
2.02	19.7359
2.014	20.2719
2.008	20.8124
2.002	21.2833
1.996	21.9294
1.99	22.3791
1.984	22.92
1.978	23.3811
1.972	24.0162
1.966	24.44
1.96	24.927
1.954	25.4424
1.948	25.9812
1.942	26.4468
1.936	26.9239
1.93	27.3291
1.924	27.6965
1.918	28.1689
1.912	28.5462
1.906	28.9527
1.9	29.2559
1.894	29.6068
1.888	29.9611
1.882	30.3097
1.876	30.6383
1.87	30.7496
1.864	31.0456
1.858	31.2423
1.852	31.4789
1.846	31.5836
1.84	31.7659
1.834	31.8663
1.828	31.9137
1.822	32.1001
1.816	32.1199
1.81	32.238
1.804	32.3305
1.798	32.3429
1.792	32.5682
1.786	32.5472
1.78	32.5643
1.774	32.5177
1.768	32.5132
1.762	32.5285
1.756	32.4268
1.75	32.5112
1.744	32.3823
1.738	32.3621
1.732	32.3589
1.726	32.2762
1.72	32.2458
1.714	32.1653
1.708	32.147
1.702	32.1516
1.696	32.0276
1.69	31.8139
1.684	31.7805
1.678	31.7098
1.672	31.7271
1.666	31.7456
1.66	31.6992
1.654	31.7774
1.648	31.6653
1.642	31.7312
1.636	31.7213
1.63	31.6837
1.624	31.767
1.618	31.7719
1.612	31.7459
1.606	31.7216
1.6	31.7532
1.594	31.7885
1.588	31.6914
1.582	31.846
1.576	31.7644
1.57	31.7532
1.564	31.769
1.558	31.7905
1.552	31.7347
1.546	31.7885
1.54	31.7974
1.534	31.7784
1.528	31.7997
1.522	31.8354
1.516	31.8365
1.51	31.7884
1.504	31.8121
1.498	31.8359
1.492	31.8219
1.486	31.7924
1.48	31.8433
1.474	31.8665
1.468	31.7797
1.462	31.8628
1.456	31.8905
1.45	31.8494
1.444	31.8571
1.438	31.9298
1.432	31.8409
1.426	31.9067
1.42	31.898
1.414	31.9372
1.408	31.8733
1.402	31.9327
1.396	31.9728
1.39	32.0175
1.384	31.9517
1.378	31.9311
1.372	31.9233
1.366	31.954
1.36	31.898
1.354	31.9741
1.348	31.9453
1.342	32.0555
1.336	32.0164
1.33	32.0211
1.324	31.9989
1.318	32.0094
1.312	32.0221
1.306	32.0179
1.3	32.0271
1.294	31.9777
1.288	32.0005
1.282	32.0292
1.276	31.9779
1.27	32.003
1.264	31.9911
1.258	31.9998
1.252	32.0425
1.246	32.0295
1.24	32.013
1.234	32.0099
1.228	31.9843
1.222	32.0171
1.216	31.9909
1.21	32.0301
1.204	31.9271
1.198	31.9423
1.192	31.9269
1.186	31.9376
1.18	31.9365
1.174	31.908
1.168	31.953
1.162	31.8654
1.156	31.9045
1.15	31.907
1.144	31.821
1.138	31.8735
1.132	31.8173
1.126	31.7865
1.12	31.7945
1.114	31.817
1.108	31.7768
1.102	31.7487
1.096	31.7573
1.09	31.681
1.084	31.649
1.078	31.7551
1.072	31.662
1.066	31.6583
1.06	31.6338
1.054	31.6226
1.048	31.5636
1.042	31.6039
1.036	31.466
1.03	31.5018
1.024	31.4894
1.018	31.4317
1.012	31.3787
1.006	31.294
1	31.2836
0.994	31.2657
0.988	31.1668
0.982	31.0884
0.976	30.9702
0.97	30.9215
0.964	30.8627
0.958	30.7304
0.952	30.6171
0.946	30.4944
0.94	30.3485
0.934	30.2271
0.928	30.0657
0.922	29.8805
0.916	29.7214
0.91	29.4241
0.904	29.2048
0.898	29.0379
0.892	28.8021
0.886	28.5591
0.88	28.3012
0.874	28.0323
0.868	27.7807
0.862	27.5683
0.856	27.2303
0.85	27.0448
0.844	26.8509
0.838	26.6407
0.832	26.4446
0.826	26.2402
0.82	26.0463
0.814	25.8492
0.808	25.6406
0.802	25.4388
0.796	25.2128
0.79	24.977
0.784	24.7746
0.778	24.5454
0.772	24.2816
0.766	24.0333
0.76	23.7544
0.754	23.4623
0.748	23.1131
0.742	22.7097
0.736	22.2566
0.73	21.7396
0.724	21.2002
0.718	20.6165
0.712	20.0304
0.706	19.4498
0.7	18.9167
0.694	18.4487
0.688	18.0769
0.682	17.7322
0.676	17.4311
0.67	17.1438
0.664	16.8737
0.658	16.6169
0.652	16.3698
0.646	16.1505
0.64	15.9685
0.634	15.8368
0.628	15.7677
0.622	15.7258
0.616	15.708
0.61	15.6402
0.604	15.529
0.598	15.3713
0.592	15.2052
0.586	15.0069
0.58	14.7612
0.574	14.5187
0.568	14.2607
0.562	13.9704
0.556	13.6185
0.55	13.2553
0.544	12.8934
0.538	12.5469
0.532	12.1951
0.526	11.8472
0.52	11.5291
0.514	11.2108
0.508	10.8969
0.502	10.5949
0.496	10.3492
0.49	10.1859
0.484	10.0518
0.478	9.88828
0.472	9.6777
0.466	9.51387
0.46	9.44825
0.454	9.37714
0.448	9.27067
0.442	9.17767
0.436	9.12534
0.43	9.11396
0.424	9.13525
0.418	9.14573
0.412	9.13632
0.406	9.13146
0.4	9.13492
