Name: Granodiorite
Type: Rock
Class: Igneous
Subclass: Intermediate
Particle Size: Solid surface
Sample No.: Ward26.txt
Owner: JPL
Origin: Ward's Collection of American Rocks.  Sample locality - St. Cloud, Stearns County, Minnesota.
Description: A medium granular, gray rock, composed of plagioclase, pink
Measurement: Hemispherical reflectance
X Units: Wavelength (micrometers)
Y Units: Reflectance (percent)
wavelength	value
15.3871	6.3596
15.118	3.73984
14.8581	4.2155
14.6069	4.91944
14.3642	4.44814
14.1293	4.75396
13.9021	5.64837
13.682	6.17699
13.4687	5.92701
13.2621	5.99585
13.0616	6.05075
12.8672	7.55071
12.6784	6.06644
12.4951	6.58209
12.317	4.1922
12.1439	5.75283
11.9757	6.31943
11.812	6.96539
11.6527	7.54816
11.4977	7.66946
11.3468	8.35684
11.1997	9.27451
11.0564	9.70459
10.9168	10.1962
10.7806	11.237
10.6478	12.1746
10.5182	13.306
10.3917	14.5808
10.2683	16.2285
10.1477	18.303
10.0299	20.3552
9.9148	22.6759
9.8024	22.5897
9.6925	22.8473
9.585	22.8891
9.4798	23.0315
9.377	23.4364
9.2763	24.9205
9.1778	24.4989
9.0814	23.6688
8.987	22.704
8.8945	23.246
8.8039	24.5057
8.7151	24.1475
8.6281	20.9526
8.5428	24.23
8.4592	24.4718
8.3772	22.7879
8.2967	20.3475
8.2179	16.3121
8.1404	12.1291
8.0645	7.62373
7.9899	4.47333
7.9167	2.73221
7.8449	1.9029
7.7743	1.8432
7.705	1.50218
7.6369	1.37893
7.57	1.04461
7.5043	1.59093
7.4397	1.08336
7.3762	1.35337
7.3138	1.80143
7.2524	1.64236
7.1921	1.85847
7.1327	1.67418
7.0743	1.90793
7.0169	2.0894
6.9604	2.00066
6.9047	2.09756
6.85	2.29907
6.7962	2.24346
6.7431	2.36992
6.6909	2.43413
6.6395	2.63413
6.5889	2.48735
6.539	2.56691
6.49	2.68989
6.4416	2.7929
6.3939	2.71938
6.347	2.67941
6.3007	2.93264
6.2551	2.67824
6.2101	2.64357
6.1658	2.89991
6.1222	2.94367
6.0791	3.14472
6.0366	3.38052
5.9948	3.02568
5.9535	2.94295
5.9127	2.96636
5.8726	3.07731
5.8329	3.02064
5.7938	3.14085
5.7552	3.50058
5.7172	3.67101
5.6796	3.65136
5.6425	3.35304
5.6059	3.52933
5.5698	3.69822
5.5341	3.47565
5.4989	3.81351
5.4641	3.80072
5.4298	3.83536
5.3959	3.90156
5.3624	4.12866
5.3294	4.13861
5.2967	4.10127
5.2644	4.27422
5.2326	4.37353
5.2011	4.6035
5.17	4.67346
5.1392	4.72405
5.1088	4.88819
5.0788	4.9398
5.0491	5.24721
5.0198	5.22491
4.9908	5.25089
4.9622	5.36734
4.9338	5.58845
4.9058	5.56112
4.8781	5.8574
4.8508	6.44201
4.8237	6.38701
4.7969	6.55155
4.7704	6.67933
4.7443	6.49722
4.7184	6.51421
4.6927	7.18837
4.6674	6.94129
4.6423	7.16116
4.6175	7.28147
4.593	7.90914
4.5687	7.78601
4.5447	8.15562
4.5209	8.04229
4.4974	8.25162
4.4741	8.21686
4.451	8.68764
4.4282	8.95165
4.4057	9.28836
4.3833	9.65119
4.3612	9.75802
4.3393	10.2932
4.3176	10.6202
4.2962	10.5248
4.2749	10.9406
4.2539	11.5668
4.233	11.2335
4.2124	11.5353
4.192	11.7599
4.1717	12.27
4.1517	11.7605
4.1319	12.5978
4.1122	12.1441
4.0927	12.2343
4.0734	12.9305
4.0543	13.3508
4.0354	13.19
4.0166	12.9505
3.9981	12.6902
3.9796	13.0007
3.9614	13.0744
3.9433	13.0136
3.9254	13.5134
3.9077	13.4431
3.8901	13.2323
3.8726	13.6624
3.8554	13.519
3.8382	13.5345
3.8213	13.7517
3.8045	13.6655
3.7878	14.0098
3.7713	13.7689
3.7549	13.6669
3.7386	14.2763
3.7225	13.786
3.7066	14.4092
3.6907	14.0907
3.675	14.4743
3.6595	14.2344
3.644	14.6514
3.6287	14.0377
3.6136	14.8181
3.5985	14.3215
3.5836	14.5613
3.5688	14.673
3.5541	14.2626
3.5396	14.5694
3.5251	14.2494
3.5108	13.9654
3.4966	14.0694
3.4825	13.9507
3.4685	14.0381
3.4547	13.7184
3.4409	13.6866
3.4273	13.4832
3.4137	14.1047
3.4003	13.6684
3.387	13.6295
3.3738	12.6248
3.3606	13.6132
3.3476	13.1115
3.3347	13.1701
3.3219	12.8863
3.3092	13.0611
3.2965	13.0205
3.284	12.5993
3.2716	12.3317
3.2593	12.2857
3.247	12.0677
3.2348	12.3417
3.2228	11.0836
3.2108	11.4236
3.1989	11.3954
3.1871	12.0364
3.1754	10.8458
3.1638	10.6522
3.1523	10.0594
3.1408	10.7808
3.1294	11.0344
3.1181	10.0145
3.1069	9.99683
3.0958	10.1857
3.0848	9.13051
3.0738	10.7455
3.0629	9.87432
3.0521	9.68363
3.0413	9.23185
3.0307	9.20404
3.0201	9.51875
3.0096	9.29751
2.9991	8.99624
2.9887	10.0604
2.9784	8.87286
2.9682	8.7622
2.9581	8.09649
2.948	8.94738
2.9379	9.39678
2.928	9.04801
2.9181	8.62631
2.9083	8.33078
2.8985	10.3089
2.8888	8.81747
2.8792	9.61037
2.8697	9.95591
2.8602	9.83492
2.8507	9.79151
2.8413	10.0155
2.832	8.86369
2.8228	8.73338
2.8136	9.32265
2.8045	10.3804
2.7954	9.85051
2.7864	10.5064
2.7774	11.0793
2.7685	11.5025
2.7597	11.1564
2.7509	10.1829
2.7422	11.4144
2.7335	11.3041
2.7249	13.2691
2.7163	12.8047
2.7078	13.5087
2.6994	15.6412
2.691	15.4433
2.6826	18.8712
2.6743	19.2299
2.666	19.0334
2.6578	19.6954
2.6497	19.7421
2.6416	20.4076
2.6336	19.7654
2.6256	19.9051
2.6176	19.6968
2.6097	18.1177
2.6018	20.139
2.594	19.6282
2.5863	20.5255
2.5785	20.4
2.5709	19.7627
2.5633	20.2246
2.5557	20.2434
2.5481	19.5609
2.5406	20.2816
2.5332	19.833
2.5258	20.0672
2.5184	19.6711
2.5111	19.7481
2.5038	20.556
2.4966	20.251
2.4894	21.0855
2.4823	20.1118
2.4752	19.6006
2.4681	20.1806
2.4611	19.5863
2.4541	19.7851
2.4471	21.3853
2.4402	19.2832
2.4333	19.4872
2.4265	20.9799
2.4197	19.7394
2.413	19.5949
2.4063	20.5516
2.3996	20.2525
2.3929	19.3841
2.3863	18.7073
2.3798	20.5421
2.3732	19.6785
2.3667	20.153
2.3603	20.0501
2.3538	20.783
2.3474	21.253
2.3411	19.3766
2.3347	20.3412
2.3285	19.8104
2.3222	20.3074
2.316	19.6086
2.3098	20.406
2.3036	22.4371
2.2975	22.2865
2.2914	19.0322
2.2854	21.8513
2.2793	20.8672
2.2733	19.9965
2.2674	21.0547
2.2614	20.5332
2.2555	22.5188
2.2497	21.3687
2.2438	21.3639
2.238	19.3888
2.2322	22.1076
2.2265	20.5678
2.2208	22.0424
2.2151	21.3922
2.2094	20.727
2.2038	21.7145
2.1982	21.6895
2.1926	21.5639
2.187	23.1709
2.1815	20.536
2.176	20.1715
2.1706	20.5417
2.1651	21.3633
2.1597	21.53
2.1543	22.7657
2.149	19.7643
2.1436	24.5261
2.1383	20.43
2.1331	22.7933
2.1278	22.8805
2.1226	21.4119
2.1174	19.5501
2.1122	21.6335
2.1071	22.2993
2.1019	19.6988
2.0968	20.4275
2.0918	19.9608
2.0867	18.5787
2.0817	22.5691
2.0767	23.5059
2.0717	21.1258
2.0667	22.7962
2.0618	20.9497
2.0569	21.1201
2.052	25.4039
2.0472	22.357
2.0423	17.24
2.0375	19.334
2.0327	21.0442
2.028	18.2223
2.0232	17.6039
2.0185	22.4352
2.0138	23.6422
2.0091	19.2425
2.0044	18.7227
1.9998	26.1815
