Name: Analcime NaAlSi_2O_6.H_2O
Type: Mineral
Class: Silicates
Subclass: Tectosilicates
Particle Size: 0-45um
Sample No.: TS-18A
Owner: JPL
Measurement: Hemispherical reflectance
X Units: Wavelength (micrometers)
Y Units: Reflectance (percent)
wavelength	value
15.385	1.6711
15.116	2.1106
14.856	2.2146
14.605	2.1832
14.362	2.2997
14.128	2.0854
13.9	2.1947
13.68	2.2978
13.467	1.8395
13.26	1.528
13.06	1.4302
12.866	1.0433
12.677	1.3413
12.494	2.1323
12.316	3.9655
12.143	5.2262
11.974	6.4778
11.811	7.4908
11.651	8.0347
11.496	8.3363
11.345	8.5809
11.198	8.5115
11.055	8.1254
10.915	7.8736
10.779	7.3071
10.647	6.698
10.517	6.0509
10.39	5.8284
10.267	5.5771
10.146	5.7283
10.029	6.3888
9.914	7.182
9.801	7.9502
9.691	8.5252
9.584	9.3028
9.479	9.7583
9.376	9.2632
9.275	7.5263
9.177	5.7919
9.08	5.0877
8.986	4.9812
8.893	5.0134
8.803	4.7564
8.714	4.0557
8.627	3.2647
8.542	2.8038
8.458	2.0008
8.376	1.4362
8.296	0.7628
8.217	0.2955
8.139	0.0293
8.063	0.0809
7.989	0.0088
7.916	0.0638
7.844	0.2702
7.773	0.2876
7.704	0.5357
7.636	0.731
7.569	1.1225
7.503	1.3136
7.439	1.715
7.375	2.1342
7.313	2.6503
7.252	2.9328
7.191	3.2392
7.132	3.6109
7.073	3.8594
7.016	4.1556
6.96	4.4695
6.904	4.5738
6.849	4.6982
6.795	4.8452
6.742	4.8582
6.69	5.3279
6.639	6.1256
6.588	6.412
6.538	6.7265
6.489	6.8644
6.441	6.1597
6.393	5.4405
6.346	5.0993
6.3	4.5883
6.254	3.8178
6.209	2.7059
6.165	1.3499
6.121	0.876
6.078	0.881
6.036	1.7088
5.994	3.0292
5.953	4.5312
5.912	5.5443
5.872	6.4265
5.832	7.1307
5.793	7.4465
5.755	7.8716
5.716	8.3175
5.679	8.6028
5.642	9.1774
5.605	9.6629
5.569	10.2685
5.533	10.8824
5.498	11.8591
5.463	13.0231
5.429	13.7396
5.395	14.4498
5.362	15.074
5.329	15.6211
5.296	16.2579
5.264	16.9029
5.232	17.5195
5.2	17.9837
5.169	18.4235
5.139	19.0412
5.108	19.8315
5.078	20.4735
5.049	21.1251
5.019	21.4483
4.99	21.4387
4.962	21.3523
4.933	21.0953
4.905	20.9689
4.878	21.2272
4.85	21.9116
4.823	22.7565
4.796	23.3601
4.77	23.8094
4.744	24.0957
4.718	24.4757
4.692	24.9495
4.667	25.7793
4.642	26.9182
4.617	28.3283
4.592	29.7835
4.568	31.5446
4.544	33.1891
4.52	34.7917
4.497	36.4127
4.474	37.8338
4.45	39.4182
4.428	41.2215
4.405	43.2223
4.383	45.3804
4.361	47.3783
4.339	49.2522
4.317	50.9784
4.296	52.7067
4.274	54.2357
4.253	55.5574
4.233	56.5489
4.212	57.9898
4.191	59.0902
4.171	60.2995
4.151	61.2103
4.131	62.0216
4.112	62.8308
4.092	63.6188
4.073	64.2804
4.054	64.926
4.035	65.3642
4.016	65.7591
3.998	66.0859
3.979	66.4073
3.961	66.6512
3.943	67.1528
3.925	67.274
3.907	67.5765
3.89	67.6168
3.872	67.7658
3.855	67.7226
3.838	67.7374
3.821	67.5795
3.804	67.3149
3.787	66.9883
3.771	67.3051
3.754	67.7214
3.738	67.529
3.722	67.4718
3.706	67.1773
3.69	66.8407
3.675	66.4127
3.659	65.9242
3.644	65.4505
3.628	64.9727
3.613	64.3793
3.598	63.8845
3.583	63.2941
3.568	62.7259
3.554	62.3329
3.539	61.7306
3.525	61.3115
3.51	60.9779
3.496	60.5185
3.482	60.1365
3.468	59.5492
3.454	58.9558
3.441	58.0271
3.427	57.2628
3.413	56.1582
3.4	55.2764
3.387	54.3648
3.373	53.2538
3.36	52.2665
3.347	51.151
3.334	49.9862
3.321	48.9977
3.309	47.7941
3.296	46.5733
3.284	45.4338
3.271	44.2928
3.259	43.1828
3.247	41.9639
3.234	40.6084
3.222	39.3076
3.21	37.9247
3.199	36.3451
3.187	34.9092
3.175	33.0802
3.163	31.5493
3.152	29.7377
3.14	28.1608
3.129	26.1993
3.118	24.0678
3.107	21.7785
3.095	19.2481
3.084	17.3383
3.073	15.8846
3.063	14.7502
3.052	14.3677
3.041	14.241
3.03	13.9908
3.02	13.5966
3.009	13.2259
2.999	12.3593
2.988	11.8606
2.978	10.8775
2.968	10.2195
2.958	9.3626
2.948	8.6201
2.938	7.6119
2.928	6.792
2.918	6.1698
2.908	5.4473
2.898	4.9914
2.888	4.6296
2.879	4.0754
2.869	3.8189
2.86	3.7588
2.85	3.365
2.841	3.0064
2.832	2.8301
2.822	2.8869
2.813	2.4227
2.804	2.5839
2.795	2.5868
2.786	2.7072
2.777	2.1394
2.768	1.8866
2.759	1.694
2.751	2.3066
2.742	3.4383
2.733	5.9093
2.725	7.4912
2.716	8.892
2.707	12.4171
2.699	15.8675
2.691	18.6149
2.682	21.2516
2.674	23.1553
2.666	25.7048
2.658	26.8245
2.649	28.2587
2.641	30.1961
2.633	31.4847
2.625	32.0097
2.617	33.0182
2.609	32.8538
2.602	32.6689
2.594	32.7158
2.586	31.4543
2.578	30.4016
2.571	29.2338
2.563	27.8639
2.555	25.9567
2.548	24.9574
2.54	24.4844
2.533	24.68
2.525	25.2448
2.518	26.1443
2.511	26.3496
2.504	26.7993
2.496	27.3801
2.489	27.9672
2.482	29.0669
2.475	30.4513
2.468	32.3794
2.461	34.3951
2.454	36.9638
2.447	39.6072
2.44	42.7304
2.433	46.0919
2.426	49.2446
2.419	52.4445
2.413	55.2569
2.406	57.4155
2.399	59.4128
2.393	61.2111
2.386	62.3854
2.379	63.6409
2.373	64.6931
2.366	65.8001
2.36	66.5752
2.354	67.1684
2.347	67.7398
2.341	68.484
2.334	68.9441
2.328	69.3039
2.322	69.8793
2.316	70.2769
2.309	70.6969
2.303	70.901
2.297	71.4437
2.291	71.9916
2.285	72.4033
2.279	72.7319
2.273	72.9565
2.267	73.3179
2.261	73.6306
2.255	74.0242
2.249	74.1645
2.244	74.2854
2.238	74.4267
2.232	74.4083
2.226	74.6669
2.22	74.9134
2.215	74.8418
2.209	74.8779
2.204	75.1809
2.198	75.1701
2.192	74.9467
2.187	74.9141
2.181	75.1173
2.176	74.6587
2.17	74.7892
2.165	74.6239
2.159	74.2028
2.154	73.8693
2.149	73.4387
2.143	73.1651
2.138	73.3
2.133	73.196
2.128	73.3481
2.122	73.6784
2.117	74.0304
2.112	74.6359
2.107	74.765
2.102	75.7993
2.097	75.7307
2.091	76.1954
2.086	76.7727
2.081	76.8062
2.076	76.7671
2.071	77.065
2.066	76.5923
2.062	76.7728
2.057	76.471
2.052	77.058
2.047	76.601
2.042	76.5232
2.037	76.4329
2.032	76.5428
2.028	76.1408
2.023	76.0187
2.018	76.2441
2.014	75.9199
2.009	75.779
2.004	75.2931
