Name: Actinolite Ca_2(Mg,Fe^2+)_5Si_8O_22(OH)_2
Type: Mineral
Class: Silicates
Subclass: Inosilicates
Particle Size: 45-125um
Sample No.: IN-4A
Owner: JPL
Wavelength Range: VNIR-SWIR
Origin: USA, California, San Bernadino County, Wrightwood
Measurement: Hemispherical reflectance
X Units: Wavelength (micrometers)
Y Units: Reflectance (percent)
wavelength	value
0.4	25.29
0.403	25.73
0.406	26.12
0.409	26.31
0.412	26.66
0.415	27.15
0.418	27.48
0.421	27.94
0.424	28.32
0.427	28.79
0.43	29.04
0.433	29.15
0.436	29.21
0.439	29.31
0.442	29.51
0.445	29.64
0.448	30
0.451	30.26
0.454	30.62
0.457	30.99
0.46	31.26
0.463	31.71
0.466	32.24
0.469	32.48
0.472	32.86
0.475	33.42
0.478	33.84
0.481	34.4
0.484	34.72
0.487	35.05
0.49	35.28
0.493	35.59
0.496	35.98
0.499	36.53
0.502	36.85
0.505	37.02
0.508	37.03
0.511	37.47
0.514	38.03
0.517	38.3
0.52	38.48
0.523	38.53
0.526	38.53
0.529	38.69
0.532	38.72
0.535	38.69
0.538	38.79
0.541	38.71
0.544	38.45
0.547	38.35
0.55	38.48
0.553	38.56
0.556	38.51
0.559	38.41
0.562	38.29
0.565	38.24
0.568	37.96
0.571	37.67
0.574	37.22
0.577	37.03
0.58	36.77
0.583	36.49
0.586	36.25
0.589	36.12
0.592	35.68
0.595	35.5
0.598	35.25
0.601	35.09
0.604	34.7
0.607	34.43
0.61	34.22
0.613	33.97
0.616	33.74
0.619	33.49
0.622	33.17
0.625	32.94
0.628	32.71
0.631	32.75
0.634	32.5
0.637	32.28
0.64	32.07
0.643	32.11
0.646	32.05
0.649	32.03
0.652	32.05
0.655	31.84
0.658	31.7
0.661	31.76
0.664	31.93
0.667	31.95
0.67	32.01
0.673	32.01
0.676	32.12
0.679	32.28
0.682	32.44
0.685	32.36
0.688	32.46
0.691	32.22
0.694	32.26
0.697	32.4
0.7	32.54
0.703	32.71
0.706	32.86
0.709	33.04
0.712	33.35
0.715	33.36
0.718	33.49
0.721	33.62
0.724	33.78
0.727	33.94
0.73	34.07
0.733	34.14
0.736	34.25
0.739	34.31
0.742	34.4
0.745	34.44
0.748	34.8
0.751	34.8
0.754	34.86
0.757	34.9
0.76	34.94
0.763	35.13
0.766	35.24
0.769	35.3
0.772	35.39
0.775	35.43
0.778	35.38
0.781	35.6
0.784	35.65
0.787	35.57
0.79	35.48
0.793	35.56
0.796	35.59
0.799	35.65
0.808	35.64
0.82	35.11
0.832	34.57
0.844	33.84
0.856	33.18
0.868	32.6
0.88	31.97
0.892	31.43
0.904	30.82
0.916	30.21
0.928	29.53
0.94	28.83
0.952	27.9
0.964	27.04
0.976	25.99
0.988	25.03
1	24.45
1.012	23.82
1.024	23.61
1.036	23.82
1.048	24.5
1.06	25.8
1.072	27.56
1.084	29.53
1.096	31.55
1.108	33.22
1.12	34.86
1.132	36.29
1.144	37.53
1.156	38.66
1.168	39.83
1.18	40.95
1.192	42.23
1.204	43.35
1.216	44.63
1.228	45.9
1.24	47.22
1.252	48.55
1.264	49.81
1.276	51.02
1.288	52.44
1.3	53.76
1.312	55.01
1.324	55.98
1.336	57.24
1.348	58.28
1.36	59.22
1.372	59.54
1.384	55.4
1.396	47.12
1.408	58.54
1.42	62.65
1.432	63.83
1.444	64.56
1.456	65.18
1.468	65.77
1.48	66.31
1.492	66.9
1.504	67.23
1.516	67.69
1.528	67.9
1.54	68.33
1.552	68.77
1.564	69.14
1.576	69.48
1.588	69.93
1.6	70.21
1.612	70.5
1.624	70.72
1.636	70.96
1.648	71.29
1.66	71.48
1.672	71.74
1.684	71.8
1.696	72.02
1.708	72.08
1.72	72.19
1.732	72.12
1.744	72.15
1.756	72.16
1.768	72.17
1.78	72.15
1.792	72.05
1.804	71.92
1.816	71.68
1.828	71.41
1.84	71.13
1.852	70.64
1.864	70.46
1.876	70.11
1.888	69.67
1.9	69.37
1.912	68.95
1.924	68.7
1.936	68.14
1.948	67.73
1.96	67.13
1.972	66.71
1.984	65.95
1.996	65.56
2.008	65.26
2.02	65.09
2.032	64.94
2.044	64.43
2.056	63.76
2.068	63.18
2.08	62.61
2.092	61.72
2.104	60.44
2.116	59.59
2.128	59.25
2.14	59.21
2.152	59.18
2.164	58.91
2.176	58.68
2.188	58.26
2.2	57.68
2.212	57.13
2.224	55.89
2.236	54.13
2.248	52.27
2.26	50
2.272	46.7
2.284	42.28
2.296	37.72
2.308	36.32
2.32	38.58
2.332	42.89
2.344	46.17
2.356	46.32
2.368	43.73
2.38	41.18
2.392	41.03
2.404	42.95
2.416	44.9
2.428	45.91
2.44	45.78
2.452	45.55
2.464	45.12
2.476	45.09
2.488	45.44
2.5	46
