Name: Amygdaloidal Basalt
Type: Rock
Class: Igneous
Subclass: Basic
Particle Size: Solid surface
Sample No.: Ward34.txt
Owner: JPL
Origin: Ward's Collection of American Rocks.  Sample locality - Mohawk Mine, Ahmeek, Keweenaw County, Michigan.
Description: A purplish, compact rock with innumerable amygdules of varying
Measurement: Hemispherical reflectance
X Units: Wavelength (micrometers)
Y Units: Reflectance (percent)
wavelength	value
2.5	11.3815
2.494	11.6825
2.488	11.5822
2.482	11.6039
2.476	11.8479
2.47	11.8366
2.464	11.8816
2.458	12.0633
2.452	12.093
2.446	12.1492
2.44	12.1637
2.434	12.3088
2.428	12.3763
2.422	12.5698
2.416	12.6186
2.41	12.6511
2.404	12.6789
2.398	12.8102
2.392	12.7447
2.386	12.85
2.38	12.9753
2.374	13.0038
2.368	13.1497
2.362	13.2905
2.356	13.3665
2.35	13.3855
2.344	13.5923
2.338	13.6498
2.332	13.703
2.326	13.7085
2.32	13.712
2.314	13.6997
2.308	13.701
2.302	13.6381
2.296	13.6923
2.29	13.794
2.284	13.9262
2.278	14.0697
2.272	14.2859
2.266	14.2497
2.26	14.2819
2.254	14.2386
2.248	14.3096
2.242	14.4441
2.236	14.451
2.23	14.4786
2.224	14.5734
2.218	14.6644
2.212	14.7675
2.206	14.719
2.2	14.871
2.194	14.9505
2.188	14.9959
2.182	15.0605
2.176	15.1563
2.17	15.1352
2.164	15.2171
2.158	15.321
2.152	15.2509
2.146	15.31
2.14	15.3185
2.134	15.3173
2.128	15.3077
2.122	15.202
2.116	15.1963
2.11	15.1432
2.104	15.0286
2.098	15.0742
2.092	15.0469
2.086	15.0231
2.08	15.0947
2.074	15.0823
2.068	15.1369
2.062	15.1105
2.056	15.0709
2.05	15.0106
2.044	15.0577
2.038	14.9635
2.032	14.9482
2.026	14.8404
2.02	14.7965
2.014	14.7653
2.008	14.615
2.002	14.542
1.996	14.3413
1.99	14.2236
1.984	14.0583
1.978	13.9985
1.972	13.8573
1.966	13.7413
1.96	13.6062
1.954	13.4401
1.948	13.4658
1.942	13.3054
1.936	13.0733
1.93	12.9127
1.924	12.5232
1.918	12.1087
1.912	12.0513
1.906	12.1083
1.9	12.9602
1.894	14.0293
1.888	14.9214
1.882	15.5056
1.876	15.7487
1.87	16.0725
1.864	16.2782
1.858	16.3665
1.852	16.4658
1.846	16.5374
1.84	16.4561
1.834	16.5786
1.828	16.6152
1.822	16.6707
1.816	16.6671
1.81	16.7163
1.804	16.6619
1.798	16.7567
1.792	16.7608
1.786	16.7536
1.78	16.7748
1.774	16.7347
1.768	16.7602
1.762	16.7895
1.756	16.7863
1.75	16.8442
1.744	16.8781
1.738	16.8939
1.732	16.9054
1.726	16.9365
1.72	16.9572
1.714	16.9889
1.708	17.0461
1.702	16.9948
1.696	17.0331
1.69	17.1676
1.684	17.0139
1.678	17.0659
1.672	17.1266
1.666	17.1656
1.66	17.1866
1.654	17.2515
1.648	17.2062
1.642	17.3277
1.636	17.3343
1.63	17.2996
1.624	17.2584
1.618	17.2207
1.612	17.2981
1.606	17.3424
1.6	17.3396
1.594	17.4281
1.588	17.4401
1.582	17.3186
1.576	17.3711
1.57	17.3851
1.564	17.4063
1.558	17.3983
1.552	17.3895
1.546	17.4133
1.54	17.4363
1.534	17.455
1.528	17.4443
1.522	17.4055
1.516	17.421
1.51	17.3872
1.504	17.4214
1.498	17.3613
1.492	17.3095
1.486	17.2258
1.48	17.2007
1.474	17.177
1.468	17.152
1.462	17.1947
1.456	17.0841
1.45	17.0438
1.444	16.9667
1.438	16.8629
1.432	16.7694
1.426	16.6869
1.42	16.606
1.414	16.5453
1.408	16.7739
1.402	17.1086
1.396	17.4835
1.39	17.8247
1.384	18.0481
1.378	18.2392
1.372	18.2421
1.366	18.2858
1.36	18.3532
1.354	18.426
1.348	18.4328
1.342	18.3636
1.336	18.4915
1.33	18.4925
1.324	18.5748
1.318	18.5438
1.312	18.5691
1.306	18.6716
1.3	18.6266
1.294	18.6662
1.288	18.6754
1.282	18.7379
1.276	18.7428
1.27	18.7317
1.264	18.7491
1.258	18.7373
1.252	18.813
1.246	18.8711
1.24	18.9195
1.234	18.8193
1.228	18.8681
1.222	18.8891
1.216	18.8915
1.21	18.9196
1.204	18.907
1.198	18.9478
1.192	18.954
1.186	19.0408
1.18	18.9559
1.174	19.0536
1.168	19.0248
1.162	19.0804
1.156	19.084
1.15	19.1161
1.144	19.0887
1.138	19.1296
1.132	19.1515
1.126	19.2082
1.12	19.1787
1.114	19.1934
1.108	19.1908
1.102	19.2744
1.096	19.2247
1.09	19.1983
1.084	19.2489
1.078	19.3225
1.072	19.2062
1.066	19.272
1.06	19.2954
1.054	19.2336
1.048	19.3129
1.042	19.2954
1.036	19.3382
1.03	19.3472
1.024	19.3625
1.018	19.3373
1.012	19.3275
1.006	19.3796
1	19.4285
0.994	19.4222
0.988	19.4593
0.982	19.4805
0.976	19.5206
0.97	19.4302
0.964	19.587
0.958	19.5533
0.952	19.5959
0.946	19.6486
0.94	19.7043
0.934	19.7162
0.928	19.7202
0.922	19.7651
0.916	19.7662
0.91	19.7067
0.904	19.7674
0.898	19.7845
0.892	19.7806
0.886	19.7981
0.88	19.7809
0.874	19.8745
0.868	19.7965
0.862	19.7934
0.856	19.8996
0.85	19.9553
0.844	19.9988
0.838	20.0517
0.832	20.102
0.826	20.1352
0.82	20.1734
0.814	20.1626
0.808	20.1731
0.802	20.2004
0.796	20.1863
0.79	20.1818
0.784	20.1774
0.778	20.1558
0.772	20.1164
0.766	20.0856
0.76	20.0189
0.754	19.9534
0.748	19.8722
0.742	19.7645
0.736	19.6569
0.73	19.5282
0.724	19.3789
0.718	19.234
0.712	19.0577
0.706	18.8606
0.7	18.6642
0.694	18.4431
0.688	18.233
0.682	18.0247
0.676	17.7811
0.67	17.5287
0.664	17.2741
0.658	17.025
0.652	16.7705
0.646	16.5267
0.64	16.2855
0.634	16.0564
0.628	15.8209
0.622	15.6019
0.616	15.3794
0.61	15.1605
0.604	14.9346
0.598	14.7149
0.592	14.4827
0.586	14.2433
0.58	14.0051
0.574	13.7608
0.568	13.5244
0.562	13.2927
0.556	13.0372
0.55	12.8001
0.544	12.5559
0.538	12.3003
0.532	12.0188
0.526	11.713
0.52	11.3887
0.514	11.0648
0.508	10.7422
0.502	10.4347
0.496	10.1593
0.49	9.93166
0.484	9.75582
0.478	9.64515
0.472	9.5528
0.466	9.46471
0.46	9.34952
0.454	9.21073
0.448	9.01079
0.442	8.81116
0.436	8.59498
0.43	8.38159
0.424	8.20214
0.418	8.04921
0.412	7.92493
0.406	7.81003
0.4	7.67828
