Name: Gahnite ZnAl_2O_4
Type: Mineral
Class: Oxides
Particle Size: 0-45um
Sample No.: O-11A
Owner: JPL
Origin: Nigeria, Kaduna, Jemaa, Godogodo Mine.
Measurement: Hemispherical reflectance
X Units: Wavelength (micrometers)
Y Units: Reflectance (percent)
wavelength	value
2.5	14.423
2.494	14.4271
2.488	14.593
2.482	14.35
2.476	14.5631
2.47	14.4361
2.464	14.4807
2.458	14.461
2.452	14.5444
2.446	14.574
2.44	14.5534
2.434	14.6879
2.428	14.7776
2.422	14.754
2.416	14.6577
2.41	14.7529
2.404	14.8122
2.398	14.8195
2.392	14.8299
2.386	14.8451
2.38	14.8685
2.374	14.888
2.368	14.9004
2.362	14.8961
2.356	14.8777
2.35	14.7859
2.344	14.8645
2.338	14.8152
2.332	14.7676
2.326	14.7188
2.32	14.6117
2.314	14.577
2.308	14.5803
2.302	14.4836
2.296	14.4194
2.29	14.3035
2.284	14.1943
2.278	14.1142
2.272	14.0625
2.266	13.9726
2.26	13.9243
2.254	13.7323
2.248	13.7323
2.242	13.583
2.236	13.4661
2.23	13.3384
2.224	13.2047
2.218	13.1116
2.212	13.062
2.206	12.8601
2.2	12.826
2.194	12.7559
2.188	12.7145
2.182	12.5718
2.176	12.5286
2.17	12.386
2.164	12.3212
2.158	12.3109
2.152	12.1863
2.146	12.1534
2.14	12.0653
2.134	11.9919
2.128	11.8593
2.122	11.814
2.116	11.7236
2.11	11.6412
2.104	11.5703
2.098	11.4213
2.092	11.4411
2.086	11.5154
2.08	11.4459
2.074	11.4715
2.068	11.4448
2.062	11.4651
2.056	11.5424
2.05	11.5706
2.044	11.6069
2.038	11.6084
2.032	11.6471
2.026	11.6991
2.02	11.7737
2.014	11.8249
2.008	11.8052
2.002	11.852
1.996	11.9579
1.99	11.9926
1.984	12.0972
1.978	12.0882
1.972	12.1683
1.966	12.2185
1.96	12.3144
1.954	12.4074
1.948	12.5047
1.942	12.6156
1.936	12.6461
1.93	12.6759
1.924	12.7749
1.918	12.9258
1.912	12.9993
1.906	13.1683
1.9	13.262
1.894	13.4422
1.888	13.5464
1.882	13.6859
1.876	13.8421
1.87	13.9452
1.864	14.1246
1.858	14.3532
1.852	14.4982
1.846	14.758
1.84	14.9129
1.834	15.1477
1.828	15.4026
1.822	15.6427
1.816	15.8846
1.81	16.2123
1.804	16.4618
1.798	16.7939
1.792	17.0971
1.786	17.4226
1.78	17.776
1.774	18.127
1.768	18.5159
1.762	18.9351
1.756	19.3324
1.75	19.7414
1.744	20.1889
1.738	20.6992
1.732	21.1913
1.726	21.651
1.72	22.174
1.714	22.6722
1.708	23.2487
1.702	23.7257
1.696	24.3018
1.69	24.9059
1.684	25.4169
1.678	26.0804
1.672	26.6443
1.666	27.2429
1.66	27.8873
1.654	28.6768
1.648	29.2802
1.642	30.0319
1.636	30.782
1.63	31.4907
1.624	32.2397
1.618	33.0728
1.612	33.8027
1.606	34.5574
1.6	35.4803
1.594	36.2531
1.588	37.0713
1.582	38.01
1.576	38.8461
1.57	39.6852
1.564	40.5736
1.558	41.4229
1.552	42.3287
1.546	43.2245
1.54	44.1478
1.534	44.9922
1.528	45.8517
1.522	46.6423
1.516	47.5079
1.51	48.2607
1.504	49.1063
1.498	49.9496
1.492	51.0201
1.486	51.964
1.48	52.9168
1.474	53.6889
1.468	54.6523
1.462	55.4512
1.456	56.3028
1.45	57.1111
1.444	57.8017
1.438	58.5598
1.432	59.2304
1.426	59.9562
1.42	60.7229
1.414	61.4744
1.408	62.2161
1.402	62.9028
1.396	63.6529
1.39	64.3307
1.384	64.8812
1.378	65.6236
1.372	66.0877
1.366	66.6643
1.36	67.1037
1.354	67.685
1.348	68.0546
1.342	68.4702
1.336	68.7643
1.33	69.0688
1.324	69.3864
1.318	69.5953
1.312	69.814
1.306	69.8796
1.3	70.0372
1.294	70.2472
1.288	70.4413
1.282	70.712
1.276	70.9376
1.27	71.2115
1.264	71.4166
1.258	71.5057
1.252	71.5916
1.246	71.6946
1.24	71.7895
1.234	72.0202
1.228	72.0846
1.222	72.2099
1.216	72.4082
1.21	72.59
1.204	72.8061
1.198	72.9676
1.192	73.1987
1.186	73.328
1.18	73.4384
1.174	73.6958
1.168	73.7233
1.162	73.9184
1.156	73.9402
1.15	74.0431
1.144	74.0669
1.138	74.1008
1.132	74.0803
1.126	74.1705
1.12	74.1144
1.114	74.2347
1.108	74.1808
1.102	74.0334
1.096	74.0796
1.09	73.9682
1.084	73.9017
1.078	73.8446
1.072	73.7127
1.066	73.596
1.06	73.3818
1.054	73.3146
1.048	73.0914
1.042	72.8851
1.036	72.6858
1.03	72.5314
1.024	72.3078
1.018	72.06
1.012	71.7943
1.006	71.4751
1	71.1634
0.994	70.7923
0.988	70.5852
0.982	70.2123
0.976	69.9636
0.97	69.651
0.964	69.335
0.958	69.1536
0.952	68.9342
0.946	68.9023
0.94	68.7061
0.934	68.6591
0.928	68.5375
0.922	68.5328
0.916	68.5371
0.91	68.5211
0.904	68.5698
0.898	68.5899
0.892	68.5991
0.886	68.6634
0.88	68.6724
0.874	68.6301
0.868	68.6357
0.862	68.6635
0.856	68.642
0.85	68.6835
0.844	68.5913
0.838	68.5444
0.832	68.4873
0.826	68.3832
0.82	68.3421
0.814	68.2212
0.808	68.1393
0.802	68.071
0.796	67.8972
0.79	67.7662
0.784	67.6573
0.778	67.4763
0.772	67.3693
0.766	67.2174
0.76	67.0378
0.754	66.8274
0.748	66.6328
0.742	66.3998
0.736	66.1109
0.73	65.7855
0.724	65.5504
0.718	65.287
0.712	65.0061
0.706	64.713
0.7	64.4291
0.694	64.1452
0.688	63.8577
0.682	63.6158
0.676	63.4073
0.67	63.2482
0.664	63.1542
0.658	63.0501
0.652	62.8399
0.646	62.4018
0.64	61.5914
0.634	60.7365
0.628	60.1282
0.622	59.8084
0.616	59.9813
0.61	60.292
0.604	60.0648
0.598	59.5877
0.592	59.0789
0.586	58.7423
0.58	58.7284
0.574	58.6848
0.568	58.7907
0.562	58.9723
0.556	58.9596
0.55	59.1971
0.544	59.5077
0.538	60.0578
0.532	60.7732
0.526	61.4663
0.52	62.0673
0.514	62.4658
0.508	62.4893
0.502	62.4955
0.496	62.1994
0.49	61.6636
0.484	60.8654
0.478	59.8507
0.472	59.0499
0.466	58.2567
0.46	57.5102
0.454	57.7186
0.448	57.7957
0.442	57.2054
0.436	56.1193
0.43	54.7375
0.424	53.2696
0.418	51.4556
0.412	49.5616
0.406	47.884
0.4	46.4368
