Name: Halite NaCl
Type: Mineral
Class: Halides
Particle Size: 0-45um
Sample No.: H-3A
Owner: JPL
Origin: USA, Michigan, Wayne County, Detroit.
Measurement: Hemispherical reflectance
X Units: Wavelength (micrometers)
Y Units: Reflectance (percent)
wavelength	value
2.5	75.1577
2.494	75.2393
2.488	75.0939
2.482	75.253
2.476	75.442
2.47	75.6114
2.464	75.8329
2.458	75.9312
2.452	76.0208
2.446	76.2412
2.44	76.3754
2.434	76.5357
2.428	76.8585
2.422	77.093
2.416	77.2936
2.41	77.484
2.404	77.7589
2.398	77.9616
2.392	78.2123
2.386	78.4606
2.38	78.6257
2.374	78.9386
2.368	79.1227
2.362	79.1834
2.356	79.3893
2.35	79.578
2.344	79.67
2.338	79.7922
2.332	79.8312
2.326	79.8324
2.32	79.9151
2.314	79.9435
2.308	79.9005
2.302	79.9207
2.296	80.0365
2.29	79.9193
2.284	79.9287
2.278	79.8965
2.272	79.893
2.266	79.9569
2.26	79.9331
2.254	80.0073
2.248	79.9465
2.242	79.9933
2.236	80.0225
2.23	80.032
2.224	80.0954
2.218	80.0816
2.212	80.1883
2.206	80.3412
2.2	80.5678
2.194	80.5419
2.188	80.5218
2.182	80.7008
2.176	80.7226
2.17	80.8214
2.164	81.0179
2.158	81.0728
2.152	81.0848
2.146	81.0978
2.14	81.1456
2.134	81.0013
2.128	80.7531
2.122	80.4101
2.116	80.1354
2.11	79.8154
2.104	79.476
2.098	79.3161
2.092	79.252
2.086	79.2619
2.08	79.2135
2.074	79.1614
2.068	79.1652
2.062	79.1545
2.056	79.0956
2.05	78.9696
2.044	78.8471
2.038	78.6984
2.032	78.4118
2.026	78.1952
2.02	77.8319
2.014	77.495
2.008	77.0661
2.002	76.6448
1.996	76.0136
1.99	75.4584
1.984	75.0304
1.978	74.8638
1.972	74.7795
1.966	74.7087
1.96	74.7646
1.954	74.7713
1.948	74.9119
1.942	75.0355
1.936	75.2206
1.93	75.5587
1.924	75.88
1.918	76.4403
1.912	77.13
1.906	77.9942
1.9	78.7429
1.894	79.5072
1.888	79.938
1.882	80.3795
1.876	80.5638
1.87	80.7462
1.864	80.8942
1.858	80.9067
1.852	80.9751
1.846	80.9487
1.84	80.9117
1.834	80.888
1.828	80.8851
1.822	80.9387
1.816	80.9419
1.81	80.8989
1.804	80.9518
1.798	80.9034
1.792	80.8877
1.786	80.9141
1.78	80.802
1.774	80.8279
1.768	80.7802
1.762	80.8257
1.756	80.812
1.75	80.8142
1.744	80.8606
1.738	80.8948
1.732	80.9251
1.726	80.9465
1.72	80.923
1.714	80.8924
1.708	80.912
1.702	80.9123
1.696	80.7868
1.69	80.8009
1.684	80.7738
1.678	80.7835
1.672	80.7496
1.666	80.7667
1.66	80.7964
1.654	80.7625
1.648	80.7274
1.642	80.6368
1.636	80.5903
1.63	80.5536
1.624	80.5539
1.618	80.5211
1.612	80.5509
1.606	80.5264
1.6	80.4774
1.594	80.5051
1.588	80.41
1.582	80.3522
1.576	80.2814
1.57	80.2554
1.564	80.2782
1.558	80.1212
1.552	80.1438
1.546	80.0532
1.54	79.9698
1.534	79.8739
1.528	79.8109
1.522	79.6912
1.516	79.6598
1.51	79.6082
1.504	79.5048
1.498	79.3973
1.492	79.2489
1.486	79.1191
1.48	79.0525
1.474	78.8914
1.468	78.86
1.462	78.7821
1.456	78.69
1.45	78.8212
1.444	78.7851
1.438	78.8908
1.432	78.9721
1.426	79.0996
1.42	79.2044
1.414	79.3534
1.408	79.4764
1.402	79.5938
1.396	79.8318
1.39	79.9069
1.384	79.9537
1.378	79.9362
1.372	79.8979
1.366	79.8312
1.36	79.8638
1.354	79.8222
1.348	79.8654
1.342	79.7204
1.336	79.7498
1.33	79.8399
1.324	79.7261
1.318	79.7606
1.312	79.6795
1.306	79.71
1.3	79.6716
1.294	79.634
1.288	79.6013
1.282	79.5554
1.276	79.5383
1.27	79.5461
1.264	79.5099
1.258	79.4757
1.252	79.4147
1.246	79.3698
1.24	79.39
1.234	79.3349
1.228	79.2637
1.222	79.2382
1.216	79.2154
1.21	79.1476
1.204	79.1732
1.198	79.0922
1.192	79.1404
1.186	79.1133
1.18	79.0262
1.174	79.0464
1.168	79.0442
1.162	79.0216
1.156	79.0262
1.15	78.9168
1.144	78.8936
1.138	78.8944
1.132	78.884
1.126	78.8427
1.12	78.8871
1.114	78.7837
1.108	78.769
1.102	78.7559
1.096	78.6986
1.09	78.6975
1.084	78.6859
1.078	78.6539
1.072	78.6777
1.066	78.6399
1.06	78.5278
1.054	78.4836
1.048	78.5357
1.042	78.3844
1.036	78.3847
1.03	78.3834
1.024	78.3375
1.018	78.3007
1.012	78.2085
1.006	78.3078
1	78.1689
0.994	78.0813
0.988	78.0551
0.982	78.0343
0.976	77.9499
0.97	77.8967
0.964	77.8586
0.958	77.7951
0.952	77.7691
0.946	77.6312
0.94	77.6134
0.934	77.57
0.928	77.5733
0.922	77.5045
0.916	77.3635
0.91	77.3922
0.904	77.2654
0.898	77.2021
0.892	77.1133
0.886	77.0291
0.88	76.9873
0.874	76.9016
0.868	77.0685
0.862	77.0113
0.856	76.8095
0.85	76.8302
0.844	76.8285
0.838	76.7758
0.832	76.772
0.826	76.7946
0.82	76.7852
0.814	76.7756
0.808	76.8015
0.802	76.8862
0.796	76.8371
0.79	76.8066
0.784	76.8532
0.778	76.847
0.772	76.7461
0.766	76.8211
0.76	76.8134
0.754	76.8635
0.748	76.8509
0.742	76.8657
0.736	76.8638
0.73	76.9004
0.724	76.8794
0.718	76.9064
0.712	76.8856
0.706	76.8828
0.7	76.8859
0.694	76.8843
0.688	76.8774
0.682	76.8613
0.676	76.8488
0.67	76.8358
0.664	76.8361
0.658	76.8591
0.652	76.8377
0.646	76.7958
0.64	76.7985
0.634	76.7701
0.628	76.751
0.622	76.7404
0.616	76.6979
0.61	76.6688
0.604	76.6363
0.598	76.6277
0.592	76.6292
0.586	76.5614
0.58	76.4841
0.574	76.3836
0.568	76.3137
0.562	76.2028
0.556	76.042
0.55	75.9046
0.544	75.7761
0.538	75.6726
0.532	75.5546
0.526	75.4801
0.52	75.357
0.514	75.249
0.508	75.1287
0.502	74.9743
0.496	74.7843
0.49	74.5901
0.484	74.3509
0.478	74.2834
0.472	74.1989
0.466	74.0578
0.46	73.878
0.454	73.69
0.448	73.4655
0.442	73.2474
0.436	73.0009
0.43	72.7353
0.424	72.4899
0.418	72.1922
0.412	71.8998
0.406	71.5638
0.4	71.223
