Name: Gypsum CaSO_4.2H_2O
Type: Mineral
Class: Sulfates
Particle Size: 45-125um
Sample No.: SO-2B
Owner: JPL
Wavelength Range: VNIR-SWIR
Origin: USA, Utah
Measurement: Hemispherical reflectance
X Units: Wavelength (micrometers)
Y Units: Reflectance (percent)
wavelength	value
0.4	89.96
0.403	90.15
0.406	90.28
0.409	90.34
0.412	90.52
0.415	90.28
0.418	90.29
0.421	90.47
0.424	90.53
0.427	90.52
0.43	90.59
0.433	90.71
0.436	90.53
0.439	90.6
0.442	90.89
0.445	90.77
0.448	90.89
0.451	90.96
0.454	91.09
0.457	91.12
0.46	91.07
0.463	91.1
0.466	91.28
0.469	91.23
0.472	91.12
0.475	91.24
0.478	91.37
0.481	91.37
0.484	91.45
0.487	91.58
0.49	91.29
0.493	91.26
0.496	91.39
0.499	91.35
0.502	91.42
0.505	91.42
0.508	91.59
0.511	91.42
0.514	91.42
0.517	91.71
0.52	91.59
0.523	91.53
0.526	91.54
0.529	91.77
0.532	91.43
0.535	91.45
0.538	91.68
0.541	91.72
0.544	91.79
0.547	91.8
0.55	91.7
0.553	91.84
0.556	91.77
0.559	91.96
0.562	92.35
0.565	92.3
0.568	92.12
0.571	92.11
0.574	91.8
0.577	91.83
0.58	91.94
0.583	91.76
0.586	91.88
0.589	92
0.592	92.05
0.595	91.99
0.598	91.95
0.601	92.1
0.604	92.07
0.607	91.9
0.61	92
0.613	91.79
0.616	91.79
0.619	91.79
0.622	91.95
0.625	91.73
0.628	91.73
0.631	91.9
0.634	91.67
0.637	91.79
0.64	91.73
0.643	91.73
0.646	91.67
0.649	91.73
0.652	91.67
0.655	91.67
0.658	91.66
0.661	91.73
0.664	91.61
0.667	91.68
0.67	91.84
0.673	91.67
0.676	91.67
0.679	91.79
0.682	91.67
0.685	91.61
0.688	91.67
0.691	91.62
0.694	91.73
0.697	91.61
0.7	91.69
0.703	91.5
0.706	91.51
0.709	91.73
0.712	91.85
0.715	91.67
0.718	91.67
0.721	91.5
0.724	91.62
0.727	91.51
0.73	91.62
0.733	91.56
0.736	91.44
0.739	91.45
0.742	91.51
0.745	91.39
0.748	91.4
0.751	91.39
0.754	91.21
0.757	91.27
0.76	91.1
0.763	91.15
0.766	91.11
0.769	91.1
0.772	91.21
0.775	91.11
0.778	91.1
0.781	91.16
0.784	91.05
0.787	91.12
0.79	91.22
0.793	91.23
0.796	91.28
0.799	91.25
0.808	90.72
0.82	90.59
0.832	90.65
0.844	90.47
0.856	90.51
0.868	90.45
0.88	90.39
0.892	90.39
0.904	90.16
0.916	90.09
0.928	89.99
0.94	89.74
0.952	89.32
0.964	88.61
0.976	87.66
0.988	86.88
1	86.9
1.012	88.01
1.024	88.79
1.036	89.43
1.048	89.68
1.06	89.76
1.072	89.78
1.084	89.66
1.096	89.38
1.108	89.03
1.12	88.79
1.132	88.35
1.144	87.14
1.156	84.68
1.168	81.63
1.18	80.22
1.192	80.05
1.204	79.82
1.216	81.19
1.228	81.39
1.24	82.62
1.252	83.54
1.264	83.85
1.276	84.04
1.288	84.09
1.3	83.66
1.312	82.62
1.324	81.17
1.336	79.18
1.348	76.74
1.36	74.76
1.372	73.07
1.384	72.01
1.396	70.06
1.408	65.04
1.42	58.24
1.432	51.49
1.444	44.97
1.456	50.62
1.468	52.67
1.48	52.37
1.492	52.43
1.504	56.89
1.516	57.79
1.528	56.71
1.54	57.45
1.552	61.52
1.564	64.91
1.576	67.19
1.588	69.21
1.6	71.39
1.612	73.21
1.624	74.88
1.636	76.38
1.648	77.5
1.66	78.26
1.672	78.15
1.684	77.21
1.696	74.72
1.708	70.37
1.72	64.74
1.732	59.42
1.744	56.72
1.756	57.87
1.768	59.24
1.78	60.98
1.792	63.94
1.804	65.94
1.816	67.15
1.828	67.35
1.84	66.53
1.852	63.77
1.864	58.41
1.876	50.52
1.888	42.78
1.9	34.74
1.912	27.11
1.924	20.22
1.936	16.21
1.948	16.86
1.96	19.89
1.972	22.23
1.984	26.16
1.996	34.01
2.008	41.83
2.02	46.66
2.032	49.29
2.044	50.75
2.056	51.08
2.068	51.06
2.08	50.55
2.092	49.44
2.104	47.91
2.116	46.16
2.128	44.7
2.14	43.21
2.152	41.61
2.164	40.19
2.176	39.19
2.188	38.4
2.2	37.03
2.212	36.13
2.224	37.35
2.236	38.78
2.248	39.04
2.26	38.62
2.272	39.43
2.284	40.68
2.296	41.55
2.308	41.82
2.32	41.56
2.332	40.54
2.344	39.09
2.356	36.71
2.368	33.7
2.38	29.8
2.392	25.73
2.404	22.16
2.416	19.75
2.428	18.42
2.44	17.7
2.452	16.97
2.464	16.38
2.476	15.87
2.488	15.9
2.5	16.29
