Name: Gypsum CaSO_4.2H_2O
Type: Mineral
Class: Sulfates
Particle Size: 125-500um
Sample No.: SO-2B
Owner: JPL
Origin: USA, Utah.
Measurement: Hemispherical reflectance
X Units: Wavelength (micrometers)
Y Units: Reflectance (percent)
wavelength	value
2.5	8.51159
2.494	8.0494
2.488	8.07191
2.482	8.00595
2.476	8.16894
2.47	8.32398
2.464	8.72712
2.458	8.83297
2.452	9.23935
2.446	9.33018
2.44	9.53026
2.434	9.81336
2.428	10.111
2.422	10.4543
2.416	11.0198
2.41	11.686
2.404	12.7927
2.398	14.1156
2.392	15.6475
2.386	17.3368
2.38	19.0584
2.374	20.6753
2.368	22.1807
2.362	23.4604
2.356	24.7519
2.35	25.7844
2.344	26.6577
2.338	27.4095
2.332	28.0998
2.326	28.5112
2.32	28.8168
2.314	28.926
2.308	28.9303
2.302	28.8741
2.296	28.6601
2.29	28.2727
2.284	27.6207
2.278	26.6955
2.272	25.7616
2.266	25.3976
2.26	25.5527
2.254	26.0998
2.248	26.422
2.242	26.3681
2.236	25.9734
2.23	25.1645
2.224	24.0516
2.218	23.3219
2.212	23.6146
2.206	24.3511
2.2	25.2082
2.194	25.8101
2.188	26.2398
2.182	26.4512
2.176	26.7598
2.17	27.3406
2.164	28.0359
2.158	28.8239
2.152	29.7005
2.146	30.4067
2.14	31.126
2.134	31.7317
2.128	32.2583
2.122	33.0536
2.116	33.785
2.11	34.6126
2.104	35.4709
2.098	36.3866
2.092	37.1735
2.086	37.8486
2.08	38.2458
2.074	38.3465
2.068	38.3519
2.062	38.5368
2.056	38.7477
2.05	38.7008
2.044	38.14
2.038	37.3431
2.032	36.1886
2.026	34.8294
2.02	33.1177
2.014	30.8522
2.008	27.7323
2.002	23.9475
1.996	19.4417
1.99	16.0446
1.984	14.5367
1.978	13.651
1.972	13.1094
1.966	12.7452
1.96	11.9278
1.954	10.3837
1.948	9.68239
1.942	9.84555
1.936	10.4733
1.93	11.7607
1.924	13.9292
1.918	16.5412
1.912	19.2368
1.906	22.2026
1.9	25.7258
1.894	29.2314
1.888	33.2214
1.882	37.5501
1.876	41.8047
1.87	46.5416
1.864	50.4457
1.858	53.5548
1.852	55.807
1.846	57.2246
1.84	57.9032
1.834	58.297
1.828	58.3159
1.822	58.0376
1.816	57.4515
1.81	56.7173
1.804	55.8471
1.798	54.3465
1.792	52.4146
1.786	50.3512
1.78	48.8413
1.774	48.0706
1.768	47.6087
1.762	46.8234
1.756	45.4721
1.75	44.6794
1.744	45.3587
1.738	47.5165
1.732	50.516
1.726	53.8931
1.72	57.4422
1.714	61.0642
1.708	64.3767
1.702	67.1875
1.696	69.3175
1.69	70.8146
1.684	71.7083
1.678	72.4031
1.672	72.7026
1.666	72.6377
1.66	72.381
1.654	71.9052
1.648	71.1631
1.642	70.4544
1.636	69.2777
1.63	68.2805
1.624	67.3019
1.618	66.2098
1.612	65.0942
1.606	63.709
1.6	62.3018
1.594	60.8431
1.588	59.501
1.582	58.2977
1.576	57.0406
1.57	55.5163
1.564	53.7283
1.558	51.6681
1.552	48.9756
1.546	46.1923
1.54	44.5567
1.534	44.7279
1.528	45.7844
1.522	46.4503
1.516	46.5799
1.51	45.8637
1.504	43.8718
1.498	40.8006
1.492	39.0226
1.486	40.1133
1.48	41.4148
1.474	41.0822
1.468	40.3978
1.462	39.3078
1.456	36.9708
1.45	32.6742
1.444	32.6075
1.438	38.5358
1.432	43.5699
1.426	46.2686
1.42	50.0839
1.414	54.3927
1.408	57.9986
1.402	61.0374
1.396	62.9891
1.39	64.0853
1.384	64.6422
1.378	65.1881
1.372	66.2877
1.366	67.4531
1.36	68.553
1.354	69.9655
1.348	71.7122
1.342	73.5192
1.336	75.0961
1.33	76.3287
1.324	77.4522
1.318	78.3297
1.312	79.2841
1.306	79.8759
1.3	80.2413
1.294	80.519
1.288	80.5903
1.282	80.5926
1.276	80.5061
1.27	80.2426
1.264	79.9901
1.258	79.8085
1.252	79.4796
1.246	78.664
1.24	77.3804
1.234	76.4655
1.228	76.3384
1.222	76.2622
1.216	75.4872
1.21	74.0446
1.204	74.0859
1.198	74.5109
1.192	74.6876
1.186	74.807
1.18	75.0277
1.174	76.2792
1.168	78.3686
1.162	80.9921
1.156	82.9976
1.15	84.8124
1.144	86.0786
1.138	86.7525
1.132	87.2131
1.126	87.6068
1.12	87.9638
1.114	88.1435
1.108	88.494
1.102	88.8374
1.096	89.0566
1.09	89.348
1.084	89.5244
1.078	89.6772
1.072	89.5994
1.066	89.5894
1.06	89.5634
1.054	89.4337
1.048	89.3072
1.042	88.9671
1.036	88.6151
1.03	87.9613
1.024	87.3076
1.018	86.6776
1.012	85.9428
1.006	85.1781
1	84.2944
0.994	84.4936
0.988	84.9659
0.982	85.6381
0.976	86.5739
0.97	87.3179
0.964	87.9749
0.958	88.5864
0.952	89.1465
0.946	89.5762
0.94	89.7912
0.934	89.9999
0.928	90.1615
0.922	90.1944
0.916	90.2072
0.91	90.3146
0.904	90.544
0.898	90.7032
0.892	90.871
0.886	90.9059
0.88	90.9017
0.874	91.0637
0.868	91.0471
0.862	91.0713
0.856	91.2289
0.85	91.2878
0.844	91.4353
0.838	91.5258
0.832	91.5816
0.826	91.6901
0.82	91.71
0.814	91.709
0.808	91.6929
0.802	91.6847
0.796	91.6376
0.79	91.5527
0.784	91.5116
0.778	91.5001
0.772	91.4588
0.766	91.4266
0.76	91.5048
0.754	91.6088
0.748	91.6601
0.742	91.7478
0.736	91.8089
0.73	91.8753
0.724	91.8905
0.718	91.9489
0.712	91.9702
0.706	91.9929
0.7	92.0006
0.694	92.0496
0.688	92.022
0.682	92.0906
0.676	92.1049
0.67	92.109
0.664	92.09
0.658	92.0962
0.652	92.1245
0.646	92.1094
0.64	92.1275
0.634	92.1204
0.628	92.1131
0.622	92.1322
0.616	92.1123
0.61	92.1244
0.604	92.1194
0.598	92.1406
0.592	92.1907
0.586	92.1625
0.58	92.1233
0.574	92.0805
0.568	92.0139
0.562	91.9584
0.556	91.8659
0.55	91.835
0.544	91.7349
0.538	91.6837
0.532	91.6126
0.526	91.5415
0.52	91.4765
0.514	91.4162
0.508	91.3279
0.502	91.2529
0.496	91.1493
0.49	91.0325
0.484	90.9006
0.478	90.7768
0.472	90.6859
0.466	90.528
0.46	90.4062
0.454	90.1858
0.448	90.0101
0.442	89.8186
0.436	89.6164
0.43	89.496
0.424	89.3448
0.418	89.2366
0.412	89.1344
0.406	89.0415
0.4	88.9875
