Name: Barite BaSO_4
Type: Mineral
Class: Sulfates
Particle Size: 125-500um
Sample No.: SO-3A
Owner: JPL
Origin: USA, South Carolina, Cherokee County, Kings Creek.
Measurement: Hemispherical reflectance
X Units: Wavelength (micrometers)
Y Units: Reflectance (percent)
wavelength	value
2.5	80.27
2.494	80.1195
2.488	80.4964
2.482	80.7255
2.476	81.0019
2.47	81.1484
2.464	81.4873
2.458	81.6249
2.452	81.7019
2.446	81.9532
2.44	82.0549
2.434	82.2474
2.428	82.4149
2.422	82.621
2.416	82.9253
2.41	83.247
2.404	83.4053
2.398	83.4967
2.392	83.629
2.386	83.8988
2.38	84.114
2.374	84.3004
2.368	84.6198
2.362	84.7523
2.356	84.8844
2.35	85.0489
2.344	85.2498
2.338	85.2654
2.332	85.3513
2.326	85.4057
2.32	85.4945
2.314	85.5802
2.308	85.6936
2.302	85.6427
2.296	85.7958
2.29	85.913
2.284	85.905
2.278	85.9524
2.272	85.9716
2.266	86.0546
2.26	86.0839
2.254	86.1244
2.248	86.2212
2.242	86.2034
2.236	86.1909
2.23	86.3554
2.224	86.4276
2.218	86.6045
2.212	86.6827
2.206	86.7461
2.2	86.9139
2.194	86.9492
2.188	86.9955
2.182	87.1244
2.176	87.226
2.17	87.425
2.164	87.538
2.158	87.6528
2.152	87.7535
2.146	87.758
2.14	87.8456
2.134	87.6551
2.128	87.4959
2.122	87.1589
2.116	86.9445
2.11	86.5925
2.104	86.3142
2.098	86.188
2.092	86.0582
2.086	86.0657
2.08	86.0533
2.074	85.9943
2.068	85.9995
2.062	85.9617
2.056	86.0269
2.05	85.9444
2.044	85.9283
2.038	85.8786
2.032	85.7061
2.026	85.5364
2.02	85.2726
2.014	84.8829
2.008	84.8468
2.002	84.8376
1.996	84.6087
1.99	84.2916
1.984	84.0418
1.978	83.6605
1.972	83.339
1.966	83.052
1.96	82.7302
1.954	82.5258
1.948	82.3501
1.942	82.204
1.936	82.2074
1.93	82.1449
1.924	82.2852
1.918	82.5664
1.912	82.9565
1.906	83.5069
1.9	84.2742
1.894	85.2181
1.888	86.2424
1.882	86.9473
1.876	87.5985
1.87	88.05
1.864	88.2883
1.858	88.4746
1.852	88.6025
1.846	88.6097
1.84	88.7602
1.834	88.7805
1.828	88.7739
1.822	88.8448
1.816	88.8957
1.81	88.8569
1.804	88.8946
1.798	88.8586
1.792	88.8941
1.786	88.8736
1.78	88.869
1.774	88.908
1.768	88.8278
1.762	88.8351
1.756	88.924
1.75	88.9097
1.744	89.0698
1.738	89.0517
1.732	89.0769
1.726	89.1162
1.72	89.1256
1.714	89.1829
1.708	89.0765
1.702	89.1485
1.696	89.1545
1.69	89.0994
1.684	89.0652
1.678	89.063
1.672	89.0766
1.666	89.1353
1.66	89.1091
1.654	89.1802
1.648	89.1044
1.642	89.1144
1.636	89.0495
1.63	89.1389
1.624	89.1185
1.618	89.0387
1.612	89.1019
1.606	89.1332
1.6	89.1522
1.594	89.081
1.588	89.0475
1.582	89.0363
1.576	88.9757
1.57	89.0088
1.564	88.9126
1.558	88.9261
1.552	88.8274
1.546	88.8133
1.54	88.8113
1.534	88.6617
1.528	88.5928
1.522	88.5566
1.516	88.5043
1.51	88.368
1.504	88.3516
1.498	88.2656
1.492	88.1028
1.486	88.097
1.48	87.9388
1.474	87.8499
1.468	87.8455
1.462	87.8001
1.456	87.7734
1.45	87.6691
1.444	87.7676
1.438	87.7366
1.432	87.7735
1.426	87.8455
1.42	87.9267
1.414	88.0508
1.408	88.1627
1.402	88.3848
1.396	88.6944
1.39	88.8932
1.384	89.0497
1.378	89.1286
1.372	89.1955
1.366	89.2349
1.36	89.2425
1.354	89.3183
1.348	89.1096
1.342	89.2369
1.336	89.1778
1.33	89.3098
1.324	89.2041
1.318	89.2665
1.312	89.2649
1.306	89.3054
1.3	89.3027
1.294	89.2614
1.288	89.2182
1.282	89.2572
1.276	89.2357
1.27	89.2992
1.264	89.1949
1.258	89.2199
1.252	89.1457
1.246	89.1935
1.24	89.1913
1.234	89.1678
1.228	89.139
1.222	89.1272
1.216	89.1062
1.21	89.0918
1.204	89.1793
1.198	89.1176
1.192	89.1426
1.186	89.0483
1.18	89.1115
1.174	89.123
1.168	89.0476
1.162	89.0657
1.156	89.1561
1.15	89.106
1.144	89.1864
1.138	89.1305
1.132	89.1388
1.126	89.1011
1.12	89.1352
1.114	89.15
1.108	89.1648
1.102	89.1295
1.096	89.1941
1.09	89.2274
1.084	89.2258
1.078	89.1394
1.072	89.1225
1.066	89.1845
1.06	89.085
1.054	89.1921
1.048	89.1525
1.042	89.1687
1.036	89.0791
1.03	89.1561
1.024	89.2812
1.018	89.2063
1.012	89.253
1.006	89.1966
1	89.158
0.994	89.1134
0.988	89.2197
0.982	89.2055
0.976	89.1641
0.97	89.1898
0.964	89.1782
0.958	89.2684
0.952	89.2389
0.946	89.1991
0.94	89.2549
0.934	89.2902
0.928	89.2152
0.922	89.1886
0.916	89.2599
0.91	89.2667
0.904	89.2038
0.898	89.2285
0.892	89.2688
0.886	89.1608
0.88	89.2433
0.874	89.2397
0.868	89.1743
0.862	89.1499
0.856	88.535
0.85	88.6415
0.844	88.6371
0.838	88.5766
0.832	88.5995
0.826	88.6714
0.82	88.6735
0.814	88.7594
0.808	88.7664
0.802	88.739
0.796	88.6779
0.79	88.6224
0.784	88.6513
0.778	88.6047
0.772	88.5344
0.766	88.5073
0.76	88.52
0.754	88.5098
0.748	88.477
0.742	88.4179
0.736	88.4015
0.73	88.3816
0.724	88.3343
0.718	88.2652
0.712	88.233
0.706	88.1724
0.7	88.1275
0.694	88.0817
0.688	88.0351
0.682	87.9713
0.676	87.9016
0.67	87.8523
0.664	87.7753
0.658	87.7388
0.652	87.6601
0.646	87.5949
0.64	87.5759
0.634	87.4696
0.628	87.4313
0.622	87.4063
0.616	87.3579
0.61	87.341
0.604	87.2977
0.598	87.3257
0.592	87.3657
0.586	87.3485
0.58	87.3315
0.574	87.316
0.568	87.3078
0.562	87.2817
0.556	87.2012
0.55	87.1813
0.544	87.1105
0.538	87.0606
0.532	86.9976
0.526	86.9074
0.52	86.8341
0.514	86.7148
0.508	86.5529
0.502	86.409
0.496	86.2038
0.49	85.9513
0.484	85.737
0.478	85.6763
0.472	85.5941
0.466	85.4783
0.46	85.3568
0.454	85.1837
0.448	84.953
0.442	84.6718
0.436	84.4024
0.43	84.0539
0.424	83.6907
0.418	83.2712
0.412	82.8692
0.406	82.4383
0.4	81.9167
