Name: Galena PbS
Type: Mineral
Class: Sulfides
Particle Size: 125-500um
Sample No.: S-7A
Owner: JPL
Wavelength Range: VNIR-SWIR
Origin: USA, Kansas, Cherokee County, Galena
Measurement: Hemispherical reflectance
X Units: Wavelength (micrometers)
Y Units: Reflectance (percent)
wavelength	value
0.4	17.91
0.403	17.66
0.406	17.35
0.409	17.26
0.412	17.09
0.415	17.01
0.418	16.97
0.421	16.69
0.424	16.61
0.427	16.49
0.43	16.38
0.433	16.25
0.436	16.04
0.439	16.11
0.442	16
0.445	15.9
0.448	15.8
0.451	15.71
0.454	15.63
0.457	15.57
0.46	15.44
0.463	15.3
0.466	15.23
0.469	15.29
0.472	15.05
0.475	15.04
0.478	14.87
0.481	14.82
0.484	14.83
0.487	14.7
0.49	14.61
0.493	14.58
0.496	14.51
0.499	14.53
0.502	14.36
0.505	14.32
0.508	14.24
0.511	14.15
0.514	14.16
0.517	14.02
0.52	13.99
0.523	14.01
0.526	13.88
0.529	13.81
0.532	13.74
0.535	13.67
0.538	13.64
0.541	13.71
0.544	13.58
0.547	13.61
0.55	13.47
0.553	13.5
0.556	13.48
0.559	13.39
0.562	13.52
0.565	13.48
0.568	13.39
0.571	13.43
0.574	13.39
0.577	13.36
0.58	13.33
0.583	13.2
0.586	13.3
0.589	13.29
0.592	13.28
0.595	13.34
0.598	13.33
0.601	13.32
0.604	13.31
0.607	13.4
0.61	13.36
0.613	13.39
0.616	13.42
0.619	13.34
0.622	13.4
0.625	13.36
0.628	13.46
0.631	13.4
0.634	13.41
0.637	13.36
0.64	13.49
0.643	13.46
0.646	13.51
0.649	13.52
0.652	13.43
0.655	13.59
0.658	13.54
0.661	13.61
0.664	13.56
0.667	13.56
0.67	13.6
0.673	13.59
0.676	13.57
0.679	13.56
0.682	13.55
0.685	13.56
0.688	13.56
0.691	13.6
0.694	13.41
0.697	13.48
0.7	13.48
0.703	13.55
0.706	13.51
0.709	13.42
0.712	13.54
0.715	13.45
0.718	13.45
0.721	13.47
0.724	13.37
0.727	13.32
0.73	13.33
0.733	13.34
0.736	13.28
0.739	13.28
0.742	13.25
0.745	13.32
0.748	13.2
0.751	13.07
0.754	13.22
0.757	13.09
0.76	13.12
0.763	13.19
0.766	13.13
0.769	13.15
0.772	13.24
0.775	13.13
0.778	13.16
0.781	13.12
0.784	13.22
0.787	13.14
0.79	13.04
0.793	13
0.796	13.06
0.799	13.08
0.808	13.18
0.82	13.17
0.832	13.06
0.844	13.05
0.856	13
0.868	12.95
0.88	12.97
0.892	12.85
0.904	12.8
0.916	12.73
0.928	12.68
0.94	12.68
0.952	12.61
0.964	12.62
0.976	12.59
0.988	12.56
1	12.57
1.012	12.53
1.024	12.56
1.036	12.49
1.048	12.45
1.06	12.44
1.072	12.35
1.084	12.37
1.096	12.36
1.108	12.37
1.12	12.45
1.132	12.34
1.144	12.37
1.156	12.26
1.168	12.29
1.18	12.29
1.192	12.24
1.204	12.25
1.216	12.21
1.228	12.2
1.24	12.13
1.252	12.12
1.264	12.14
1.276	12.14
1.288	12.13
1.3	12.1
1.312	12.05
1.324	12.09
1.336	12.05
1.348	12.07
1.36	12.07
1.372	12.05
1.384	12.07
1.396	12.05
1.408	12.06
1.42	12
1.432	12
1.444	11.95
1.456	12
1.468	11.96
1.48	11.94
1.492	11.97
1.504	11.89
1.516	11.92
1.528	11.95
1.54	11.94
1.552	11.92
1.564	11.98
1.576	11.98
1.588	11.99
1.6	11.99
1.612	11.97
1.624	11.93
1.636	11.88
1.648	11.84
1.66	11.85
1.672	11.86
1.684	11.9
1.696	11.87
1.708	11.94
1.72	11.9
1.732	11.96
1.744	11.92
1.756	11.89
1.768	11.9
1.78	11.87
1.792	11.84
1.804	11.88
1.816	11.89
1.828	11.91
1.84	11.87
1.852	11.87
1.864	11.93
1.876	11.96
1.888	11.91
1.9	11.94
1.912	11.92
1.924	11.88
1.936	11.88
1.948	11.91
1.96	11.89
1.972	11.89
1.984	11.86
1.996	11.92
2.008	12
2.02	11.98
2.032	11.99
2.044	12.06
2.056	12.04
2.068	12.05
2.08	12.04
2.092	12
2.104	12.09
2.116	12.05
2.128	12.11
2.14	12.06
2.152	12.05
2.164	12.07
2.176	12.1
2.188	12.1
2.2	12.02
2.212	11.99
2.224	12.06
2.236	12.08
2.248	12.05
2.26	12.06
2.272	12.09
2.284	12.09
2.296	12.09
2.308	12.13
2.32	12.18
2.332	12.19
2.344	12.22
2.356	12.2
2.368	12.18
2.38	12.24
2.392	12.25
2.404	12.24
2.416	12.24
2.428	12.23
2.44	12.24
2.452	12.22
2.464	12.27
2.476	12.27
2.488	12.3
2.5	12.36
