Name: Mica Schist
Type: Rock
Class: Metamorphic
Subclass: Schist
Particle Size: Solid surface
Sample No.: Ward83.txt
Owner: JPL
Origin: Ward's Collection of American Rocks.  Sample locality - Manhattan Island, New York.  Collected by - JPL.
Description: A schistose rock composed of muscovite, biotite, and quartz
Measurement: Hemispherical reflectance
X Units: Wavelength (micrometers)
Y Units: Reflectance (percent)
wavelength	value
2.5	14.6593
2.494	14.369
2.488	14.1484
2.482	14.3173
2.476	14.0994
2.47	13.9605
2.464	13.923
2.458	13.6171
2.452	13.5205
2.446	13.4858
2.44	13.3895
2.434	13.3541
2.428	13.4297
2.422	13.6222
2.416	13.6718
2.41	13.9294
2.404	14.1399
2.398	14.2444
2.392	14.2161
2.386	14.2824
2.38	14.2187
2.374	14.2584
2.368	14.3283
2.362	14.2534
2.356	14.1388
2.35	14.1519
2.344	14.1654
2.338	14.2215
2.332	14.4555
2.326	14.8768
2.32	15.3534
2.314	15.7863
2.308	16.2834
2.302	16.6251
2.296	17.0786
2.29	17.3474
2.284	17.3881
2.278	17.455
2.272	17.3447
2.266	17.1008
2.26	16.8233
2.254	16.5345
2.248	16.2286
2.242	15.9002
2.236	15.694
2.23	15.3381
2.224	14.8828
2.218	14.1493
2.212	13.3475
2.206	12.5664
2.2	12.2192
2.194	12.3221
2.188	13.1171
2.182	14.2606
2.176	15.4674
2.17	16.5913
2.164	17.4391
2.158	17.9206
2.152	18.3182
2.146	18.5131
2.14	18.4682
2.134	18.5127
2.128	18.3521
2.122	18.1611
2.116	17.972
2.11	17.974
2.104	17.9641
2.098	18.0423
2.092	18.2433
2.086	18.3647
2.08	18.4251
2.074	18.4708
2.068	18.4913
2.062	18.4235
2.056	18.4203
2.05	18.3949
2.044	18.4285
2.038	18.3373
2.032	18.3283
2.026	18.328
2.02	18.2806
2.014	18.2151
2.008	18.2831
2.002	18.2369
1.996	18.2503
1.99	18.2308
1.984	18.152
1.978	18.3716
1.972	18.3634
1.966	18.4277
1.96	18.4289
1.954	18.6423
1.948	18.7606
1.942	18.8723
1.936	19.0368
1.93	19.0102
1.924	19.0144
1.918	18.8599
1.912	18.5136
1.906	18.4967
1.9	18.6232
1.894	18.6118
1.888	18.695
1.882	18.6905
1.876	19.0264
1.87	19.1405
1.864	18.7646
1.858	18.6943
1.852	18.6997
1.846	18.6521
1.84	18.701
1.834	18.4613
1.828	18.3426
1.822	18.3771
1.816	18.2961
1.81	18.2013
1.804	18.2348
1.798	18.1654
1.792	18.1882
1.786	18.2049
1.78	18.2407
1.774	18.2281
1.768	18.2245
1.762	18.2353
1.756	18.2377
1.75	18.2849
1.744	18.2437
1.738	18.2011
1.732	18.2368
1.726	18.19
1.72	18.1849
1.714	18.1764
1.708	18.1297
1.702	18.0398
1.696	18.0583
1.69	17.9589
1.684	17.9264
1.678	17.9165
1.672	17.8287
1.666	17.7232
1.66	17.7755
1.654	17.6996
1.648	17.6725
1.642	17.6476
1.636	17.6765
1.63	17.6549
1.624	17.5597
1.618	17.5502
1.612	17.4833
1.606	17.538
1.6	17.5259
1.594	17.4446
1.588	17.3913
1.582	17.4035
1.576	17.3237
1.57	17.3382
1.564	17.3476
1.558	17.3346
1.552	17.2815
1.546	17.2561
1.54	17.2529
1.534	17.1687
1.528	17.1617
1.522	17.0777
1.516	17.0576
1.51	17.0758
1.504	16.9753
1.498	17.0107
1.492	16.9441
1.486	16.8555
1.48	16.8581
1.474	16.7212
1.468	16.6545
1.462	16.5814
1.456	16.5701
1.45	16.5154
1.444	16.393
1.438	16.2116
1.432	15.767
1.426	14.77
1.42	13.5267
1.414	12.1164
1.408	12.2185
1.402	12.834
1.396	14.246
1.39	15.5027
1.384	15.8984
1.378	15.8896
1.372	16.0247
1.366	16.0303
1.36	15.9668
1.354	15.9238
1.348	15.8467
1.342	15.7396
1.336	15.7117
1.33	15.6806
1.324	15.5996
1.318	15.5641
1.312	15.48
1.306	15.4287
1.3	15.3965
1.294	15.3559
1.288	15.3861
1.282	15.2943
1.276	15.3127
1.27	15.2167
1.264	15.1817
1.258	15.13
1.252	15.0632
1.246	15.0267
1.24	14.9725
1.234	14.9648
1.228	14.8871
1.222	14.8891
1.216	14.8097
1.21	14.7785
1.204	14.7684
1.198	14.7307
1.192	14.6392
1.186	14.6869
1.18	14.6364
1.174	14.6456
1.168	14.6623
1.162	14.5969
1.156	14.5218
1.15	14.6151
1.144	14.5854
1.138	14.5733
1.132	14.543
1.126	14.5665
1.12	14.4731
1.114	14.508
1.108	14.6132
1.102	14.5371
1.096	14.6529
1.09	14.6825
1.084	14.6548
1.078	14.7171
1.072	14.7879
1.066	14.7298
1.06	14.7057
1.054	14.8589
1.048	14.8917
1.042	14.9532
1.036	14.9734
1.03	15.0111
1.024	15.0217
1.018	15.0925
1.012	15.0799
1.006	15.0724
1	15.0882
0.994	15.1613
0.988	15.1433
0.982	15.1305
0.976	15.0598
0.97	15.0976
0.964	14.9712
0.958	15.0921
0.952	15.0642
0.946	15.1445
0.94	15.1784
0.934	15.2074
0.928	15.2212
0.922	15.247
0.916	15.3874
0.91	15.4279
0.904	15.6081
0.898	15.6278
0.892	15.7728
0.886	15.8966
0.88	16.136
0.874	16.3576
0.868	16.4787
0.862	16.6387
0.856	16.7839
0.85	16.7856
0.844	16.791
0.838	16.7958
0.832	16.8255
0.826	16.8297
0.82	16.8312
0.814	16.8309
0.808	16.8229
0.802	16.8158
0.796	16.7975
0.79	16.7582
0.784	16.7221
0.778	16.6979
0.772	16.631
0.766	16.5712
0.76	16.5145
0.754	16.4364
0.748	16.3693
0.742	16.274
0.736	16.1909
0.73	16.1098
0.724	16.022
0.718	15.9376
0.712	15.8379
0.706	15.7306
0.7	15.6316
0.694	15.5129
0.688	15.4181
0.682	15.3156
0.676	15.2245
0.67	15.1089
0.664	14.9865
0.658	14.8749
0.652	14.7514
0.646	14.6264
0.64	14.5034
0.634	14.3886
0.628	14.246
0.622	14.1118
0.616	13.9868
0.61	13.8712
0.604	13.744
0.598	13.6316
0.592	13.5151
0.586	13.3874
0.58	13.2581
0.574	13.144
0.568	13.0308
0.562	12.9124
0.556	12.8193
0.55	12.704
0.544	12.5881
0.538	12.4653
0.532	12.3444
0.526	12.2184
0.52	12.1078
0.514	11.9922
0.508	11.8763
0.502	11.7771
0.496	11.6824
0.49	11.592
0.484	11.49
0.478	11.302
0.472	11.1888
0.466	11.0693
0.46	10.9812
0.454	10.8624
0.448	10.7274
0.442	10.5713
0.436	10.4796
0.43	10.3667
0.424	10.2662
0.418	10.1659
0.412	10.0559
0.406	9.94003
0.4	9.82033
