Name: Anglesite PbSO_4
Type: Mineral
Class: Sulfates
Particle Size: 125-500um
Sample No.: SO-10A
Owner: JPL
Origin: USA, Arizona, Santa Cruz County, Glove Mine.
Measurement: Hemispherical reflectance
X Units: Wavelength (micrometers)
Y Units: Reflectance (percent)
wavelength	value
2.5	33.2519
2.494	33.099
2.488	33.0915
2.482	33.0451
2.476	33.1528
2.47	33.0433
2.464	33.1271
2.458	33.071
2.452	33.145
2.446	33.0953
2.44	33.1801
2.434	33.1964
2.428	33.2366
2.422	33.2166
2.416	33.2429
2.41	33.3074
2.404	33.3257
2.398	33.3229
2.392	33.3309
2.386	33.4173
2.38	33.4555
2.374	33.4142
2.368	33.5406
2.362	33.5539
2.356	33.5923
2.35	33.6049
2.344	33.6294
2.338	33.604
2.332	33.6339
2.326	33.587
2.32	33.5457
2.314	33.5722
2.308	33.5236
2.302	33.4753
2.296	33.4839
2.29	33.511
2.284	33.4293
2.278	33.4167
2.272	33.4012
2.266	33.3923
2.26	33.4348
2.254	33.3553
2.248	33.3624
2.242	33.3357
2.236	33.4268
2.23	33.41
2.224	33.4321
2.218	33.4976
2.212	33.6163
2.206	33.5751
2.2	33.651
2.194	33.5977
2.188	33.601
2.182	33.5984
2.176	33.7572
2.17	33.7024
2.164	33.8078
2.158	33.833
2.152	33.8351
2.146	33.8388
2.14	33.8134
2.134	33.7685
2.128	33.7686
2.122	33.6368
2.116	33.5399
2.11	33.3674
2.104	33.2848
2.098	33.2605
2.092	33.2257
2.086	33.2061
2.08	33.2471
2.074	33.3051
2.068	33.3362
2.062	33.35
2.056	33.4092
2.05	33.3581
2.044	33.3727
2.038	33.4216
2.032	33.4407
2.026	33.4499
2.02	33.4351
2.014	33.3445
2.008	33.391
2.002	33.3378
1.996	33.3471
1.99	33.2794
1.984	33.2438
1.978	33.1249
1.972	33.1556
1.966	33.0628
1.96	32.9593
1.954	32.9521
1.948	32.9702
1.942	33.0089
1.936	32.9725
1.93	32.9652
1.924	32.9032
1.918	33.0137
1.912	33.0946
1.906	33.1822
1.9	33.2443
1.894	33.3386
1.888	33.4796
1.882	33.5361
1.876	33.5688
1.87	33.5183
1.864	33.6421
1.858	33.6201
1.852	33.6668
1.846	33.5686
1.84	33.6827
1.834	33.6936
1.828	33.6407
1.822	33.7018
1.816	33.7389
1.81	33.744
1.804	33.7858
1.798	33.8032
1.792	33.7439
1.786	33.7429
1.78	33.6916
1.774	33.7354
1.768	33.7113
1.762	33.6974
1.756	33.7
1.75	33.7095
1.744	33.6966
1.738	33.645
1.732	33.7396
1.726	33.7444
1.72	33.7047
1.714	33.7315
1.708	33.716
1.702	33.7008
1.696	33.7977
1.69	33.7739
1.684	33.7931
1.678	33.81
1.672	33.8287
1.666	33.8392
1.66	33.8719
1.654	33.8679
1.648	33.7887
1.642	33.8375
1.636	33.8418
1.63	33.7866
1.624	33.8165
1.618	33.873
1.612	33.896
1.606	33.8702
1.6	33.8826
1.594	33.8635
1.588	33.8592
1.582	33.8512
1.576	33.9181
1.57	33.8661
1.564	33.8341
1.558	33.8025
1.552	33.8228
1.546	33.875
1.54	33.8351
1.534	33.8446
1.528	33.8432
1.522	33.8282
1.516	33.807
1.51	33.8454
1.504	33.8262
1.498	33.8025
1.492	33.8322
1.486	33.7725
1.48	33.7545
1.474	33.727
1.468	33.772
1.462	33.786
1.456	33.746
1.45	33.7319
1.444	33.7293
1.438	33.7466
1.432	33.7032
1.426	33.7313
1.42	33.7059
1.414	33.7054
1.408	33.7012
1.402	33.736
1.396	33.7846
1.39	33.7865
1.384	33.7311
1.378	33.7759
1.372	33.7059
1.366	33.7336
1.36	33.5655
1.354	33.6613
1.348	33.6597
1.342	33.6647
1.336	33.6172
1.33	33.6236
1.324	33.6208
1.318	33.506
1.312	33.5098
1.306	33.3996
1.3	33.3974
1.294	33.4315
1.288	33.2784
1.282	33.3434
1.276	33.2006
1.27	33.135
1.264	33.0498
1.258	32.9863
1.252	32.876
1.246	32.8212
1.24	32.693
1.234	32.5619
1.228	32.4157
1.222	32.2538
1.216	32.0644
1.21	31.9479
1.204	31.83
1.198	31.5715
1.192	31.4245
1.186	31.2936
1.18	31.1118
1.174	30.9681
1.168	30.7498
1.162	30.6062
1.156	30.4715
1.15	30.325
1.144	30.2343
1.138	30.0871
1.132	29.9417
1.126	29.8424
1.12	29.6946
1.114	29.6422
1.108	29.5419
1.102	29.5232
1.096	29.3606
1.09	29.2812
1.084	29.2078
1.078	29.0677
1.072	28.988
1.066	28.934
1.06	28.8795
1.054	28.7089
1.048	28.6932
1.042	28.5909
1.036	28.5028
1.03	28.409
1.024	28.3704
1.018	28.2594
1.012	28.1867
1.006	28.0893
1	28.0494
0.994	27.925
0.988	27.7713
0.982	27.7026
0.976	27.619
0.97	27.5645
0.964	27.4443
0.958	27.381
0.952	27.1901
0.946	27.111
0.94	27.0041
0.934	26.8539
0.928	26.8219
0.922	26.6407
0.916	26.5283
0.91	26.3866
0.904	26.316
0.898	26.0927
0.892	26.0615
0.886	25.8606
0.88	25.7352
0.874	25.6501
0.868	25.5298
0.862	25.3441
0.856	25.4032
0.85	25.2829
0.844	25.1884
0.838	25.094
0.832	24.9931
0.826	24.8865
0.82	24.759
0.814	24.684
0.808	24.5796
0.802	24.4846
0.796	24.3367
0.79	24.2431
0.784	24.1456
0.778	24.0415
0.772	23.9118
0.766	23.8065
0.76	23.7033
0.754	23.5964
0.748	23.4817
0.742	23.3753
0.736	23.2592
0.73	23.1383
0.724	23.0034
0.718	22.9003
0.712	22.7712
0.706	22.6364
0.7	22.4992
0.694	22.3719
0.688	22.2271
0.682	22.1015
0.676	21.9634
0.67	21.8291
0.664	21.6947
0.658	21.5533
0.652	21.4244
0.646	21.2841
0.64	21.1579
0.634	21.0355
0.628	20.8988
0.622	20.7698
0.616	20.6442
0.61	20.5073
0.604	20.3755
0.598	20.2385
0.592	20.1055
0.586	19.9458
0.58	19.7857
0.574	19.6155
0.568	19.4361
0.562	19.2541
0.556	19.0657
0.55	18.8692
0.544	18.6661
0.538	18.4449
0.532	18.2257
0.526	17.9981
0.52	17.7703
0.514	17.5652
0.508	17.3442
0.502	17.1343
0.496	16.9248
0.49	16.7464
0.484	16.571
0.478	16.4116
0.472	16.2771
0.466	16.1675
0.46	16.0851
0.454	16.0145
0.448	15.9408
0.442	15.8666
0.436	15.7632
0.43	15.6618
0.424	15.5492
0.418	15.455
0.412	15.3843
0.406	15.3054
0.4	15.2405
