Name: Riebeckite Na_2(Fe^2+,Mg)_3,Fe_2^3+Si_8O_22(OH)_2
Type: Mineral
Class: Silicates
Subclass: Inosilicates
Particle Size: 0-45um
Sample No.: IN-7A
Owner: JPL
Wavelength Range: VNIR-SWIR
Origin: Canada, Ontario
Measurement: Hemispherical reflectance
X Units: Wavelength (micrometers)
Y Units: Reflectance (percent)
wavelength	value
0.4	9.57
0.403	9.88
0.406	10.04
0.409	10.16
0.412	10.34
0.415	10.59
0.418	10.74
0.421	11.01
0.424	11.13
0.427	11.35
0.43	11.54
0.433	11.7
0.436	11.78
0.439	11.74
0.442	11.88
0.445	12.06
0.448	12.22
0.451	12.3
0.454	12.5
0.457	12.57
0.46	12.74
0.463	12.94
0.466	13.01
0.469	13.12
0.472	13.28
0.475	13.46
0.478	13.56
0.481	13.62
0.484	13.67
0.487	13.63
0.49	13.73
0.493	13.71
0.496	13.76
0.499	13.72
0.502	13.78
0.505	13.85
0.508	13.72
0.511	13.81
0.514	13.72
0.517	13.67
0.52	13.69
0.523	13.7
0.526	13.69
0.529	13.46
0.532	13.49
0.535	13.31
0.538	13.39
0.541	13.42
0.544	13.3
0.547	13.23
0.55	13.16
0.553	13.25
0.556	13.2
0.559	13.13
0.562	13.07
0.565	12.99
0.568	12.97
0.571	13
0.574	12.83
0.577	12.77
0.58	12.82
0.583	12.62
0.586	12.78
0.589	12.74
0.592	12.62
0.595	12.65
0.598	12.51
0.601	12.61
0.604	12.65
0.607	12.62
0.61	12.56
0.613	12.44
0.616	12.55
0.619	12.48
0.622	12.55
0.625	12.46
0.628	12.48
0.631	12.48
0.634	12.49
0.637	12.57
0.64	12.43
0.643	12.43
0.646	12.48
0.649	12.57
0.652	12.55
0.655	12.59
0.658	12.64
0.661	12.6
0.664	12.73
0.667	12.74
0.67	12.75
0.673	12.8
0.676	12.84
0.679	13.02
0.682	13.01
0.685	12.94
0.688	13.01
0.691	13.07
0.694	13.34
0.697	13.28
0.7	13.25
0.703	13.34
0.706	13.48
0.709	13.56
0.712	13.73
0.715	13.75
0.718	13.82
0.721	13.98
0.724	14.05
0.727	14.24
0.73	14.23
0.733	14.35
0.736	14.41
0.739	14.56
0.742	14.72
0.745	14.75
0.748	14.94
0.751	15.09
0.754	15.4
0.757	15.62
0.76	15.56
0.763	15.72
0.766	15.82
0.769	15.92
0.772	16.14
0.775	16.29
0.778	16.38
0.781	16.43
0.784	16.66
0.787	16.72
0.79	16.84
0.793	16.94
0.796	17.13
0.799	17.23
0.808	17.79
0.82	18.08
0.832	18.34
0.844	18.51
0.856	18.71
0.868	18.92
0.88	19.18
0.892	19.47
0.904	19.85
0.916	20.26
0.928	20.79
0.94	21.34
0.952	22.1
0.964	22.81
0.976	23.49
0.988	24.05
1	24.58
1.012	25.18
1.024	25.82
1.036	26.28
1.048	26.8
1.06	27.19
1.072	27.67
1.084	28.15
1.096	28.59
1.108	28.96
1.12	29.46
1.132	29.92
1.144	30.34
1.156	30.99
1.168	31.53
1.18	32.18
1.192	32.79
1.204	33.49
1.216	34.16
1.228	34.95
1.24	35.73
1.252	36.53
1.264	37.36
1.276	38.08
1.288	39.07
1.3	39.93
1.312	40.88
1.324	41.75
1.336	42.66
1.348	43.55
1.36	44.56
1.372	45.38
1.384	45.8
1.396	46.51
1.408	47.95
1.42	49.06
1.432	49.99
1.444	50.9
1.456	51.72
1.468	52.55
1.48	53.39
1.492	54.18
1.504	55.04
1.516	55.8
1.528	56.57
1.54	57.25
1.552	57.95
1.564	58.7
1.576	59.35
1.588	60.02
1.6	60.62
1.612	61.19
1.624	61.87
1.636	62.45
1.648	63.05
1.66	63.74
1.672	64.17
1.684	64.7
1.696	65.17
1.708	65.74
1.72	66.22
1.732	66.59
1.744	67.01
1.756	67.44
1.768	67.83
1.78	68.18
1.792	68.54
1.804	69.04
1.816	69.33
1.828	69.71
1.84	69.95
1.852	70.15
1.864	70.44
1.876	70.69
1.888	70.86
1.9	70.9
1.912	71.08
1.924	71.48
1.936	71.7
1.948	72.02
1.96	72.23
1.972	72.47
1.984	72.79
1.996	73.12
2.008	73.35
2.02	73.53
2.032	73.61
2.044	73.87
2.056	74.07
2.068	74.19
2.08	74.38
2.092	74.42
2.104	74.59
2.116	74.85
2.128	74.9
2.14	75.02
2.152	75.01
2.164	74.97
2.176	75.09
2.188	75.07
2.2	75
2.212	75.01
2.224	75.15
2.236	75.03
2.248	74.97
2.26	74.84
2.272	74.55
2.284	73.98
2.296	72.77
2.308	71.06
2.32	70.28
2.332	70.58
2.344	71.6
2.356	72.46
2.368	72.21
2.38	71.58
2.392	71.43
2.404	72.09
2.416	73.09
2.428	73.75
2.44	74.04
2.452	74.06
2.464	73.89
2.476	73.96
2.488	74.19
2.5	74.6
