Name: Argillaceous Limestone
Type: Rock
Class: Sedimentary
Subclass: Limestone
Particle Size: Solid surface
Sample No.: Ward69.txt
Owner: JPL
Origin: Ward's Collection of American Rocks.  Sample locality - Trenton Falls, Oneida County, New York.
Description: A black compact rock containing a few brachiopod shells and
Measurement: Hemispherical reflectance
X Units: Wavelength (micrometers)
Y Units: Reflectance (percent)
wavelength	value
2.5	11.2504
2.494	11.2094
2.488	11.335
2.482	11.6343
2.476	11.7915
2.47	12.0688
2.464	12.4727
2.458	12.8191
2.452	13.0872
2.446	13.3711
2.44	13.6363
2.434	13.7803
2.428	13.9593
2.422	14.0137
2.416	14.1169
2.41	14.227
2.404	14.2465
2.398	14.3219
2.392	14.3665
2.386	14.3549
2.38	14.2801
2.374	14.2057
2.368	13.9929
2.362	13.6338
2.356	13.2705
2.35	12.7905
2.344	12.4756
2.338	12.2858
2.332	12.3522
2.326	12.4581
2.32	12.7057
2.314	12.9738
2.308	13.0549
2.302	13.1448
2.296	13.2401
2.29	13.401
2.284	13.5367
2.278	13.6506
2.272	13.9046
2.266	13.9945
2.26	14.1349
2.254	14.2721
2.248	14.3235
2.242	14.3527
2.236	14.3784
2.23	14.457
2.224	14.471
2.218	14.4859
2.212	14.5728
2.206	14.5082
2.2	14.5522
2.194	14.6161
2.188	14.7374
2.182	14.7536
2.176	14.7844
2.17	14.7874
2.164	14.8431
2.158	14.8324
2.152	14.8591
2.146	14.9251
2.14	14.9118
2.134	14.8587
2.128	14.8804
2.122	14.8557
2.116	14.7915
2.11	14.8063
2.104	14.7683
2.098	14.6949
2.092	14.732
2.086	14.8241
2.08	14.7621
2.074	14.81
2.068	14.8562
2.062	14.8552
2.056	14.898
2.05	14.8107
2.044	14.8314
2.038	14.8297
2.032	14.8797
2.026	14.857
2.02	14.7983
2.014	14.7945
2.008	14.6919
2.002	14.638
1.996	14.6636
1.99	14.6313
1.984	14.6547
1.978	14.5979
1.972	14.5736
1.966	14.6175
1.96	14.5256
1.954	14.5128
1.948	14.5867
1.942	14.5286
1.936	14.5504
1.93	14.4846
1.924	14.6212
1.918	14.4976
1.912	14.6603
1.906	14.5506
1.9	14.6432
1.894	14.8095
1.888	14.9131
1.882	14.9037
1.876	14.9027
1.87	14.8876
1.864	15.0223
1.858	15.0356
1.852	15.0195
1.846	15.1256
1.84	15.0045
1.834	15.0923
1.828	15.1259
1.822	15.1097
1.816	15.1271
1.81	15.1316
1.804	15.1749
1.798	15.1377
1.792	15.103
1.786	15.1037
1.78	15.0131
1.774	15.0231
1.768	15.0601
1.762	15.0088
1.756	14.9773
1.75	15.0023
1.744	15.0714
1.738	15.0148
1.732	15.0037
1.726	15.0164
1.72	14.981
1.714	15.008
1.708	14.9555
1.702	15.0051
1.696	14.9207
1.69	14.9167
1.684	15.0111
1.678	14.9516
1.672	14.9449
1.666	14.938
1.66	14.8887
1.654	14.9913
1.648	15.003
1.642	15.0285
1.636	14.8682
1.63	15.05
1.624	14.8608
1.618	14.9284
1.612	14.9192
1.606	14.8906
1.6	14.9242
1.594	14.8793
1.588	14.892
1.582	14.8532
1.576	14.9063
1.57	14.9356
1.564	14.8452
1.558	14.8565
1.552	14.8609
1.546	14.811
1.54	14.8017
1.534	14.8025
1.528	14.7974
1.522	14.7703
1.516	14.7646
1.51	14.6915
1.504	14.7175
1.498	14.6994
1.492	14.7066
1.486	14.7221
1.48	14.6686
1.474	14.6751
1.468	14.6455
1.462	14.6527
1.456	14.6128
1.45	14.6272
1.444	14.6545
1.438	14.5812
1.432	14.5503
1.426	14.5498
1.42	14.5421
1.414	14.428
1.408	14.41
1.402	14.493
1.396	14.5511
1.39	14.5819
1.384	14.5861
1.378	14.6162
1.372	14.5013
1.366	14.5196
1.36	14.4114
1.354	14.4776
1.348	14.4355
1.342	14.4454
1.336	14.423
1.33	14.4153
1.324	14.2869
1.318	14.3821
1.312	14.4066
1.306	14.3696
1.3	14.283
1.294	14.2753
1.288	14.2107
1.282	14.2649
1.276	14.2557
1.27	14.2337
1.264	14.1691
1.258	14.1648
1.252	14.1246
1.246	14.0736
1.24	14.0731
1.234	14.0556
1.228	13.9999
1.222	13.9916
1.216	14.0181
1.21	13.9746
1.204	13.9272
1.198	13.9337
1.192	13.844
1.186	13.9076
1.18	13.8669
1.174	13.8212
1.168	13.8506
1.162	13.7475
1.156	13.6924
1.15	13.7385
1.144	13.7188
1.138	13.6367
1.132	13.6082
1.126	13.5767
1.12	13.5914
1.114	13.5795
1.108	13.558
1.102	13.4667
1.096	13.4512
1.09	13.4604
1.084	13.398
1.078	13.343
1.072	13.3364
1.066	13.3858
1.06	13.3238
1.054	13.3022
1.048	13.2667
1.042	13.2075
1.036	13.2515
1.03	13.2408
1.024	13.1996
1.018	13.155
1.012	13.1042
1.006	13.131
1	13.0822
0.994	13.0462
0.988	12.9546
0.982	13.0232
0.976	12.951
0.97	12.8841
0.964	12.9618
0.958	12.8144
0.952	12.8449
0.946	12.7917
0.94	12.6381
0.934	12.668
0.928	12.6117
0.922	12.5978
0.916	12.5046
0.91	12.5287
0.904	12.4652
0.898	12.4048
0.892	12.4046
0.886	12.3679
0.88	12.2945
0.874	12.3066
0.868	12.3113
0.862	12.2451
0.856	12.6817
0.85	12.6945
0.844	12.6546
0.838	12.6145
0.832	12.5806
0.826	12.5423
0.82	12.5119
0.814	12.4738
0.808	12.4416
0.802	12.4047
0.796	12.3634
0.79	12.317
0.784	12.2697
0.778	12.2378
0.772	12.1872
0.766	12.1507
0.76	12.1171
0.754	12.0605
0.748	12.0122
0.742	11.989
0.736	11.9284
0.73	11.8866
0.724	11.8473
0.718	11.8
0.712	11.7579
0.706	11.7054
0.7	11.6612
0.694	11.6198
0.688	11.5722
0.682	11.53
0.676	11.4832
0.67	11.4332
0.664	11.3846
0.658	11.3403
0.652	11.2907
0.646	11.2416
0.64	11.1986
0.634	11.1484
0.628	11.1012
0.622	11.0601
0.616	11.0136
0.61	10.9706
0.604	10.9275
0.598	10.8829
0.592	10.8442
0.586	10.7957
0.58	10.7415
0.574	10.6798
0.568	10.6189
0.562	10.5459
0.556	10.4984
0.55	10.4285
0.544	10.3556
0.538	10.2811
0.532	10.2014
0.526	10.1202
0.52	10.0417
0.514	9.96406
0.508	9.89047
0.502	9.82724
0.496	9.7587
0.49	9.70805
0.484	9.65825
0.478	9.54612
0.472	9.45882
0.466	9.38833
0.46	9.31227
0.454	9.24011
0.448	9.16023
0.442	9.07914
0.436	8.99017
0.43	8.87706
0.424	8.76769
0.418	8.67023
0.412	8.57515
0.406	8.47687
0.4	8.39017
