Name: Columbite Fe^2+Nb_2O_6
Type: Mineral
Class: Oxides
Particle Size: 0-45um
Sample No.: O-7A
Owner: JPL
Wavelength Range: VNIR-SWIR
Origin: USA, South Dakota, Pennington County, Keystone
Measurement: Hemispherical reflectance
X Units: Wavelength (micrometers)
Y Units: Reflectance (percent)
wavelength	value
0.4	5.41
0.403	5.35
0.406	5.27
0.409	5.34
0.412	5.34
0.415	5.33
0.418	5.34
0.421	5.27
0.424	5.39
0.427	5.38
0.43	5.39
0.433	5.27
0.436	5.33
0.439	5.27
0.442	5.33
0.445	5.25
0.448	5.19
0.451	5.2
0.454	5.19
0.457	5.25
0.46	5.18
0.463	5.24
0.466	5.13
0.469	4.97
0.472	4.92
0.475	4.8
0.478	4.91
0.481	4.97
0.484	4.99
0.487	4.94
0.49	4.9
0.493	4.93
0.496	4.91
0.499	5.01
0.502	4.99
0.505	4.88
0.508	4.99
0.511	4.95
0.514	4.95
0.517	4.94
0.52	4.93
0.523	4.88
0.526	4.95
0.529	4.95
0.532	4.95
0.535	4.93
0.538	4.87
0.541	5
0.544	5.05
0.547	5.13
0.55	4.99
0.553	5.07
0.556	5.02
0.559	5.09
0.562	5.22
0.565	5.23
0.568	5.23
0.571	5.22
0.574	5.22
0.577	5.18
0.58	5.32
0.583	5.28
0.586	5.28
0.589	5.23
0.592	5.28
0.595	5.34
0.598	5.43
0.601	5.46
0.604	5.42
0.607	5.39
0.61	5.43
0.613	5.43
0.616	5.43
0.619	5.45
0.622	5.43
0.625	5.38
0.628	5.38
0.631	5.56
0.634	5.79
0.637	5.78
0.64	5.89
0.643	5.95
0.646	6.05
0.649	6.11
0.652	6.11
0.655	6.13
0.658	6.17
0.661	6.18
0.664	6.23
0.667	6.25
0.67	6.23
0.673	6.24
0.676	6.29
0.679	6.26
0.682	6.17
0.685	6.01
0.688	5.89
0.691	5.91
0.694	5.94
0.697	5.97
0.7	6.05
0.703	6.06
0.706	6
0.709	6.12
0.712	6.18
0.715	6.19
0.718	6.17
0.721	6.25
0.724	6.28
0.727	6.28
0.73	6.34
0.733	6.28
0.736	6.4
0.739	6.39
0.742	6.46
0.745	6.5
0.748	6.61
0.751	6.57
0.754	6.61
0.757	6.61
0.76	6.68
0.763	6.72
0.766	6.83
0.769	6.84
0.772	6.89
0.775	6.95
0.778	6.96
0.781	7.06
0.784	7.05
0.787	7.08
0.79	7.11
0.793	7.22
0.796	7.31
0.799	7.26
0.808	7.56
0.82	7.77
0.832	7.88
0.844	8.06
0.856	8.19
0.868	8.39
0.88	8.62
0.892	8.8
0.904	8.93
0.916	9.11
0.928	9.26
0.94	9.52
0.952	9.7
0.964	9.87
0.976	9.98
0.988	10.11
1	10.27
1.012	10.4
1.024	10.58
1.036	10.61
1.048	10.68
1.06	10.82
1.072	10.96
1.084	11.15
1.096	11.23
1.108	11.3
1.12	11.33
1.132	11.43
1.144	11.56
1.156	11.6
1.168	11.75
1.18	11.79
1.192	11.87
1.204	11.99
1.216	12.07
1.228	12.17
1.24	12.33
1.252	12.32
1.264	12.5
1.276	12.62
1.288	12.77
1.3	12.9
1.312	13.01
1.324	13.2
1.336	13.29
1.348	13.43
1.36	13.56
1.372	13.79
1.384	13.91
1.396	14.04
1.408	14.23
1.42	14.3
1.432	14.46
1.444	14.56
1.456	14.72
1.468	14.87
1.48	14.94
1.492	15.03
1.504	15.17
1.516	15.37
1.528	15.52
1.54	15.54
1.552	15.66
1.564	15.8
1.576	16.04
1.588	16.18
1.6	16.36
1.612	16.5
1.624	16.74
1.636	16.98
1.648	17.22
1.66	17.5
1.672	17.73
1.684	17.99
1.696	18.32
1.708	18.71
1.72	19.05
1.732	19.37
1.744	19.7
1.756	20.1
1.768	20.5
1.78	21.01
1.792	21.46
1.804	21.89
1.816	22.36
1.828	22.73
1.84	23.25
1.852	23.65
1.864	24.18
1.876	24.68
1.888	25.24
1.9	25.7
1.912	26.07
1.924	26.52
1.936	27.06
1.948	27.64
1.96	28.09
1.972	28.62
1.984	29.11
1.996	29.64
2.008	30.14
2.02	30.67
2.032	31.05
2.044	31.49
2.056	31.93
2.068	32.42
2.08	32.82
2.092	33.21
2.104	33.67
2.116	34.22
2.128	34.51
2.14	34.83
2.152	35.08
2.164	35.45
2.176	35.72
2.188	36.01
2.2	36.21
2.212	36.54
2.224	36.88
2.236	37.11
2.248	37.46
2.26	37.73
2.272	38.02
2.284	38.2
2.296	38.45
2.308	38.72
2.32	39.02
2.332	39.37
2.344	39.54
2.356	39.69
2.368	39.86
2.38	40.17
2.392	40.35
2.404	40.49
2.416	40.65
2.428	40.83
2.44	40.99
2.452	41.15
2.464	41.35
2.476	41.48
2.488	41.81
2.5	42.12
