Name: Riebeckite Na_2(Fe^2+,Mg)_3,Fe_2^3+Si_8O_22(OH)_2
Type: Mineral
Class: Silicates
Subclass: Inosilicates
Particle Size: 125-500um
Sample No.: IN-7A
Owner: JPL
Origin: Canada, Ontario.
Measurement: Hemispherical reflectance
X Units: Wavelength (micrometers)
Y Units: Reflectance (percent)
wavelength	value
2.5	35.8851
2.494	35.6279
2.488	35.5601
2.482	35.925
2.476	35.8986
2.47	35.8366
2.464	35.9404
2.458	36.0165
2.452	36.0002
2.446	36.0324
2.44	36.0062
2.434	35.7302
2.428	35.2985
2.422	34.5061
2.416	33.5364
2.41	32.4187
2.404	31.2742
2.398	30.3813
2.392	29.9171
2.386	30.1477
2.38	30.7514
2.374	31.6468
2.368	32.3565
2.362	32.7143
2.356	32.2911
2.35	31.4294
2.344	30.2263
2.338	29.0972
2.332	28.3844
2.326	28.0655
2.32	28.4383
2.314	29.63
2.308	31.4658
2.302	33.3556
2.296	35.0315
2.29	36.3995
2.284	37.243
2.278	37.8843
2.272	38.2992
2.266	38.4784
2.26	38.6666
2.254	38.7455
2.248	38.888
2.242	38.9468
2.236	38.9522
2.23	39.0139
2.224	38.893
2.218	38.9196
2.212	38.7946
2.206	38.7984
2.2	38.84
2.194	38.6464
2.188	38.5975
2.182	38.5568
2.176	38.3893
2.17	38.2304
2.164	38.1436
2.158	38.1606
2.152	37.819
2.146	37.7205
2.14	37.4804
2.134	37.2888
2.128	37.0086
2.122	36.7483
2.116	36.4421
2.11	36.2873
2.104	36.1348
2.098	36.066
2.092	36.1111
2.086	36.0846
2.08	36.0685
2.074	36.028
2.068	36.0089
2.062	35.8844
2.056	35.8244
2.05	35.7204
2.044	35.5273
2.038	35.4262
2.032	35.2065
2.026	35.0285
2.02	34.8559
2.014	34.6592
2.008	34.5109
2.002	34.3339
1.996	34.175
1.99	33.8911
1.984	33.6432
1.978	33.4421
1.972	33.1508
1.966	32.961
1.96	32.6922
1.954	32.3639
1.948	32.147
1.942	32.0245
1.936	31.7131
1.93	31.4143
1.924	31.2029
1.918	30.9379
1.912	30.7582
1.906	30.5311
1.9	30.3423
1.894	30.1429
1.888	29.8959
1.882	29.7315
1.876	29.4199
1.87	29.1894
1.864	28.9262
1.858	28.6363
1.852	28.3742
1.846	28.0384
1.84	27.7865
1.834	27.5454
1.828	27.1717
1.822	26.89
1.816	26.582
1.81	26.2916
1.804	25.9568
1.798	25.6487
1.792	25.4218
1.786	25.0861
1.78	24.7426
1.774	24.4593
1.768	24.1304
1.762	23.8089
1.756	23.476
1.75	23.2428
1.744	22.8721
1.738	22.5656
1.732	22.2806
1.726	21.9527
1.72	21.648
1.714	21.277
1.708	20.979
1.702	20.6681
1.696	20.3173
1.69	20.0416
1.684	19.6065
1.678	19.3466
1.672	18.9885
1.666	18.6038
1.66	18.329
1.654	17.9947
1.648	17.577
1.642	17.4165
1.636	17.0587
1.63	16.7998
1.624	16.4314
1.618	16.151
1.612	15.7862
1.606	15.4726
1.6	15.1906
1.594	14.8259
1.588	14.5872
1.582	14.3005
1.576	13.9461
1.57	13.6549
1.564	13.3661
1.558	13.1115
1.552	12.8494
1.546	12.6067
1.54	12.2928
1.534	12.0221
1.528	11.7099
1.522	11.4834
1.516	11.1588
1.51	10.9813
1.504	10.6861
1.498	10.4423
1.492	10.1813
1.486	9.91282
1.48	9.73825
1.474	9.53796
1.468	9.20538
1.462	9.0316
1.456	8.84546
1.45	8.59754
1.444	8.40045
1.438	8.18318
1.432	8.01644
1.426	7.794
1.42	7.54408
1.414	7.3652
1.408	7.02331
1.402	6.84948
1.396	6.6639
1.39	6.53426
1.384	6.44393
1.378	6.4019
1.372	6.24864
1.366	6.13877
1.36	6.02734
1.354	5.93912
1.348	5.73047
1.342	5.56383
1.336	5.53588
1.33	5.35466
1.324	5.31425
1.318	5.20104
1.312	5.01763
1.306	4.96349
1.3	4.91545
1.294	4.81149
1.288	4.7185
1.282	4.64092
1.276	4.57281
1.27	4.46862
1.264	4.42749
1.258	4.34004
1.252	4.3223
1.246	4.21884
1.24	4.22005
1.234	4.15352
1.228	4.05856
1.222	4.04812
1.216	4.00461
1.21	3.96514
1.204	3.91195
1.198	3.91755
1.192	3.84082
1.186	3.81971
1.18	3.80348
1.174	3.71795
1.168	3.74681
1.162	3.78672
1.156	3.68536
1.15	3.64181
1.144	3.64995
1.138	3.66742
1.132	3.62803
1.126	3.62191
1.12	3.61084
1.114	3.62071
1.108	3.5291
1.102	3.59429
1.096	3.53284
1.09	3.54557
1.084	3.51948
1.078	3.49068
1.072	3.44895
1.066	3.48575
1.06	3.47915
1.054	3.43368
1.048	3.54365
1.042	3.33985
1.036	3.39115
1.03	3.31182
1.024	3.38266
1.018	3.36409
1.012	3.35332
1.006	3.26376
1	3.30315
0.994	3.3214
0.988	3.31046
0.982	3.23884
0.976	3.19906
0.97	3.20724
0.964	3.25818
0.958	3.19023
0.952	3.20802
0.946	3.13898
0.94	3.14969
0.934	3.09328
0.928	3.12598
0.922	3.13655
0.916	3.05538
0.91	3.07049
0.904	3.09225
0.898	3.04887
0.892	3.10808
0.886	3.1037
0.88	3.0281
0.874	3.01977
0.868	3.065
0.862	3.02153
0.856	3.42504
0.85	3.42379
0.844	3.41569
0.838	3.41326
0.832	3.40755
0.826	3.40209
0.82	3.40072
0.814	3.38735
0.808	3.38071
0.802	3.3829
0.796	3.36567
0.79	3.35885
0.784	3.34725
0.778	3.33652
0.772	3.32926
0.766	3.32119
0.76	3.31042
0.754	3.3087
0.748	3.29435
0.742	3.28854
0.736	3.27797
0.73	3.27511
0.724	3.27221
0.718	3.26628
0.712	3.2608
0.706	3.25928
0.7	3.25491
0.694	3.25629
0.688	3.25246
0.682	3.2515
0.676	3.25459
0.67	3.25467
0.664	3.25644
0.658	3.25899
0.652	3.26473
0.646	3.26986
0.64	3.27578
0.634	3.28076
0.628	3.28865
0.622	3.29615
0.616	3.30692
0.61	3.31514
0.604	3.32446
0.598	3.33862
0.592	3.35198
0.586	3.36372
0.58	3.37672
0.574	3.39
0.568	3.4063
0.562	3.41855
0.556	3.43865
0.55	3.45414
0.544	3.47078
0.538	3.48675
0.532	3.5022
0.526	3.52019
0.52	3.53388
0.514	3.5533
0.508	3.57384
0.502	3.59763
0.496	3.61418
0.49	3.64124
0.484	3.66738
0.478	3.67462
0.472	3.68267
0.466	3.69764
0.46	3.71125
0.454	3.72795
0.448	3.74735
0.442	3.7646
0.436	3.79341
0.43	3.81185
0.424	3.83498
0.418	3.85778
0.412	3.88409
0.406	3.9145
0.4	3.95331
