Name: Azurite Cu_3(CO_3)_2(OH)_2
Type: Mineral
Class: Carbonates
Particle Size: 45-125um
Sample No.: C-12A
Owner: JPL
Origin: USA, California, San Bernadino County, Near Valley Wells
Measurement: Hemispherical reflectance
X Units: Wavelength (micrometers)
Y Units: Reflectance (percent)
wavelength	value
2.5	16.6548
2.494	16.5813
2.488	16.8144
2.482	17.312
2.476	17.7313
2.47	17.955
2.464	18.2153
2.458	18.5942
2.452	18.8289
2.446	19.0783
2.44	19.3092
2.434	19.5425
2.428	19.813
2.422	20.0306
2.416	20.1303
2.41	20.2677
2.404	20.4667
2.398	20.5424
2.392	20.8734
2.386	21.1737
2.38	21.3692
2.374	21.6282
2.368	21.6064
2.362	21.1438
2.356	20.686
2.35	20.7985
2.344	21.6757
2.338	23.1061
2.332	24.872
2.326	26.3467
2.32	27.1944
2.314	27.5666
2.308	27.3753
2.302	26.5968
2.296	25.2789
2.29	23.6519
2.284	22.4551
2.278	22.2201
2.272	22.9979
2.266	23.9739
2.26	24.8427
2.254	25.6626
2.248	26.8223
2.242	28.3284
2.236	29.9535
2.23	31.3086
2.224	32.1713
2.218	32.5314
2.212	32.7732
2.206	33.2816
2.2	34.5411
2.194	35.8199
2.188	36.5928
2.182	37.1741
2.176	37.6456
2.17	38.0903
2.164	38.5575
2.158	39.0264
2.152	39.3925
2.146	39.5903
2.14	39.7307
2.134	39.7336
2.128	39.5539
2.122	39.2757
2.116	38.943
2.11	38.5294
2.104	38.2282
2.098	37.9075
2.092	37.7197
2.086	37.4509
2.08	37.0809
2.074	36.6411
2.068	36.1222
2.062	35.5815
2.056	34.987
2.05	34.4398
2.044	33.7444
2.038	33.3054
2.032	32.7101
2.026	32.0503
2.02	31.4752
2.014	30.8016
2.008	30.1567
2.002	29.3327
1.996	28.5061
1.99	27.5589
1.984	26.7306
1.978	25.9316
1.972	25.181
1.966	24.4827
1.96	23.8552
1.954	23.2437
1.948	22.6856
1.942	22.0543
1.936	21.4692
1.93	20.9031
1.924	20.1635
1.918	19.5676
1.912	19.2943
1.906	19.7505
1.9	22.1723
1.894	25.9621
1.888	30.3234
1.882	34.28
1.876	37.5333
1.87	40.3378
1.864	41.9995
1.858	42.9384
1.852	43.4328
1.846	43.55
1.84	43.7544
1.834	43.8382
1.828	43.7752
1.822	43.7083
1.816	43.5551
1.81	43.3858
1.804	43.1793
1.798	42.9877
1.792	42.8318
1.786	42.6385
1.78	42.5081
1.774	42.4079
1.768	42.2685
1.762	42.1435
1.756	42.0756
1.75	41.9505
1.744	41.8371
1.738	41.6489
1.732	41.5513
1.726	41.346
1.72	41.1734
1.714	40.9237
1.708	40.7499
1.702	40.5211
1.696	40.2449
1.69	40.0084
1.684	39.6954
1.678	39.4876
1.672	39.1641
1.666	38.9507
1.66	38.599
1.654	38.2521
1.648	38.0502
1.642	37.7431
1.636	37.3119
1.63	37.0025
1.624	36.7288
1.618	36.3655
1.612	36.031
1.606	35.7166
1.6	35.2699
1.594	35.0032
1.588	34.7016
1.582	34.2997
1.576	33.9346
1.57	33.5116
1.564	33.1941
1.558	32.8331
1.552	32.4001
1.546	31.9809
1.54	31.4796
1.534	31.0414
1.528	30.5582
1.522	30.0296
1.516	29.4802
1.51	28.8509
1.504	27.8589
1.498	27.5211
1.492	27.13
1.486	26.9534
1.48	26.7562
1.474	26.3706
1.468	26.1128
1.462	25.8511
1.456	25.6468
1.45	25.3629
1.444	25.0257
1.438	24.6542
1.432	24.1386
1.426	23.51
1.42	22.5761
1.414	21.428
1.408	22.4222
1.402	24.028
1.396	25.1716
1.39	25.8355
1.384	26.076
1.378	26.2648
1.372	26.3281
1.366	26.3426
1.36	26.1448
1.354	25.9931
1.348	25.8066
1.342	25.6506
1.336	25.4291
1.33	25.2607
1.324	25.1147
1.318	24.951
1.312	24.682
1.306	24.5113
1.3	24.301
1.294	24.1769
1.288	23.9167
1.282	23.6922
1.276	23.4677
1.27	23.2885
1.264	23.0952
1.258	22.8742
1.252	22.6531
1.246	22.4658
1.24	22.2426
1.234	22.0268
1.228	21.7478
1.222	21.5807
1.216	21.3096
1.21	21.0956
1.204	20.886
1.198	20.7195
1.192	20.5079
1.186	20.3245
1.18	20.0148
1.174	19.7784
1.168	19.6158
1.162	19.3436
1.156	19.1546
1.15	18.9506
1.144	18.7811
1.138	18.4468
1.132	18.2684
1.126	18.006
1.12	17.7836
1.114	17.5928
1.108	17.2449
1.102	16.9748
1.096	16.7384
1.09	16.5053
1.084	16.1454
1.078	15.9247
1.072	15.5115
1.066	15.2229
1.06	14.9372
1.054	14.6082
1.048	14.2194
1.042	13.8194
1.036	13.4644
1.03	13.2752
1.024	12.8003
1.018	12.4377
1.012	12.0216
1.006	11.6722
1	11.2905
0.994	10.9031
0.988	10.4688
0.982	10.1491
0.976	9.72485
0.97	9.38405
0.964	9.05036
0.958	8.63999
0.952	8.39466
0.946	8.11316
0.94	7.84422
0.934	7.5235
0.928	7.2729
0.922	6.98765
0.916	6.76865
0.91	6.58677
0.904	6.30487
0.898	6.1706
0.892	5.97241
0.886	5.83549
0.88	5.68654
0.874	5.60424
0.868	5.43724
0.862	5.38211
0.856	5.56966
0.85	5.47143
0.844	5.39103
0.838	5.29816
0.832	5.21983
0.826	5.14584
0.82	5.08384
0.814	5.01757
0.808	4.9604
0.802	4.90466
0.796	4.84706
0.79	4.79965
0.784	4.76508
0.778	4.72619
0.772	4.68791
0.766	4.66434
0.76	4.63049
0.754	4.62079
0.748	4.61215
0.742	4.60561
0.736	4.61668
0.73	4.6397
0.724	4.66666
0.718	4.7135
0.712	4.77515
0.706	4.85132
0.7	4.94404
0.694	5.06328
0.688	5.19746
0.682	5.36173
0.676	5.55833
0.67	5.787
0.664	6.05354
0.658	6.37004
0.652	6.73252
0.646	7.15871
0.64	7.64354
0.634	8.2065
0.628	8.8412
0.622	9.57852
0.616	10.4184
0.61	11.3562
0.604	12.4024
0.598	13.5518
0.592	14.7899
0.586	16.0938
0.58	17.4187
0.574	18.7655
0.568	20.0826
0.562	21.3103
0.556	22.4036
0.55	23.2986
0.544	23.9671
0.538	24.4132
0.532	24.6381
0.526	24.6638
0.52	24.5465
0.514	24.3211
0.508	24.008
0.502	23.6393
0.496	23.2385
0.49	22.7932
0.484	22.3376
0.478	21.8763
0.472	21.3773
0.466	20.8381
0.46	20.2497
0.454	19.586
0.448	18.7807
0.442	17.8625
0.436	16.7967
0.43	15.6983
0.424	14.6466
0.418	13.6188
0.412	12.5905
0.406	11.5232
0.4	10.3879
