Name: Calcite CaCO_3
Type: Mineral
Class: Carbonates
Particle Size: 0-45um
Sample No.: C-3D
Owner: JPL
Wavelength Range: VNIR-SWIR
Origin: United Kingdom, England
Measurement: Hemispherical reflectance
X Units: Wavelength (micrometers)
Y Units: Reflectance (percent)
wavelength	value
0.4	61.94
0.403	62.69
0.406	63.03
0.409	63.43
0.412	63.83
0.415	63.95
0.418	64.46
0.421	64.41
0.424	65.03
0.427	65.09
0.43	65.66
0.433	65.89
0.436	66.11
0.439	66.35
0.442	66.4
0.445	66.92
0.448	66.81
0.451	67.32
0.454	67.32
0.457	67.61
0.46	67.91
0.463	67.91
0.466	68.37
0.469	68.32
0.472	68.66
0.475	68.67
0.478	68.91
0.481	69.03
0.484	69.2
0.487	69.66
0.49	69.32
0.493	69.84
0.496	69.73
0.499	70.2
0.502	70.25
0.505	70.37
0.508	70.88
0.511	70.76
0.514	71.22
0.517	71.11
0.52	71.28
0.523	71.45
0.526	71.57
0.529	71.97
0.532	71.74
0.535	72.08
0.538	72.14
0.541	72.25
0.544	72.48
0.547	72.14
0.55	72.83
0.553	72.77
0.556	72.94
0.559	73.11
0.562	73.46
0.565	73.17
0.568	73.46
0.571	73.23
0.574	73.4
0.577	73.4
0.58	73.4
0.583	73.46
0.586	73.46
0.589	73.97
0.592	73.63
0.595	74.14
0.598	73.91
0.601	74.03
0.604	74.43
0.607	74.31
0.61	74.55
0.613	74.43
0.616	74.66
0.619	74.55
0.622	74.78
0.625	74.78
0.628	74.78
0.631	75.24
0.634	74.89
0.637	75.35
0.64	75.12
0.643	75.4
0.646	75.18
0.649	75.57
0.652	75.57
0.655	75.57
0.658	75.98
0.661	75.69
0.664	76.09
0.667	75.92
0.67	76.38
0.673	76.26
0.676	76.55
0.679	76.49
0.682	76.61
0.685	76.55
0.688	76.9
0.691	76.78
0.694	76.78
0.697	77.17
0.7	76.9
0.703	76.78
0.706	77.35
0.709	77.01
0.712	77.46
0.715	77.58
0.718	77.46
0.721	77.75
0.724	77.64
0.727	77.87
0.73	77.81
0.733	77.98
0.736	77.87
0.739	78.04
0.742	78.33
0.745	78.04
0.748	78.5
0.751	78.15
0.754	78.56
0.757	78.5
0.76	78.78
0.763	78.61
0.766	78.67
0.769	78.95
0.772	78.61
0.775	79.07
0.778	78.61
0.781	79.01
0.784	79.01
0.787	79.07
0.79	79.3
0.793	79.18
0.796	79.58
0.799	79.58
0.808	79.64
0.82	79.93
0.832	80.16
0.844	80.28
0.856	80.44
0.868	80.73
0.88	80.78
0.892	80.9
0.904	81.07
0.916	81.01
0.928	81.13
0.94	81.36
0.952	81.36
0.964	81.36
0.976	81.53
0.988	81.59
1	81.65
1.012	81.88
1.024	81.99
1.036	81.99
1.048	82.04
1.06	82.04
1.072	82.04
1.084	81.99
1.096	82.1
1.108	82.16
1.12	82.33
1.132	82.44
1.144	82.56
1.156	82.61
1.168	82.41
1.18	82.51
1.192	82.55
1.204	82.65
1.216	82.65
1.228	82.71
1.24	82.77
1.252	82.71
1.264	82.8
1.276	83.06
1.288	82.99
1.3	82.85
1.312	82.84
1.324	82.98
1.336	82.79
1.348	82.83
1.36	82.94
1.372	82.77
1.384	82.54
1.396	82.37
1.408	82.04
1.42	82
1.432	82.19
1.444	82.22
1.456	82.5
1.468	82.5
1.48	82.62
1.492	82.68
1.504	82.79
1.516	82.97
1.528	83.14
1.54	83.2
1.552	82.97
1.564	83.08
1.576	83.2
1.588	83.25
1.6	83.25
1.612	83.29
1.624	83.43
1.636	83.19
1.648	83.16
1.66	83.27
1.672	83.19
1.684	83.11
1.696	83.09
1.708	83.14
1.72	82.97
1.732	82.97
1.744	82.85
1.756	82.8
1.768	82.91
1.78	82.97
1.792	82.85
1.804	82.89
1.816	82.69
1.828	82.5
1.84	82.19
1.852	81.9
1.864	81.25
1.876	80.6
1.888	79.79
1.9	78.92
1.912	78.51
1.924	78.37
1.936	78.47
1.948	78.67
1.96	78.85
1.972	79.08
1.984	78.96
1.996	79.35
2.008	79.71
2.02	80.22
2.032	80.54
2.044	80.69
2.056	80.83
2.068	81.01
2.08	81.13
2.092	81.2
2.104	81.2
2.116	81.22
2.128	81.11
2.14	80.9
2.152	80.79
2.164	80.76
2.176	80.6
2.188	80.34
2.2	80.19
2.212	79.82
2.224	79.43
2.236	78.88
2.248	78.22
2.26	77.13
2.272	76.1
2.284	74.77
2.296	73.9
2.308	73.01
2.32	72.07
2.332	71.34
2.344	72.08
2.356	74.05
2.368	76.17
2.38	77.27
2.392	77.58
2.404	77.35
2.416	76.67
2.428	75.81
2.44	74.69
2.452	73.01
2.464	71.33
2.476	69.43
2.488	67.69
2.5	66.08
