Name: Microcline (Feldspar) (K,Na)AlSi_3O_8
Type: Mineral
Class: Silicates
Subclass: Tectosilicates
Particle Size: 125-500um
Sample No.: TS-17A
Owner: JPL
Origin: Unknown.
Measurement: Hemispherical reflectance
X Units: Wavelength (micrometers)
Y Units: Reflectance (percent)
wavelength	value
2.5	58.727
2.494	58.3358
2.488	58.5222
2.482	58.5571
2.476	58.7002
2.47	58.8026
2.464	58.8188
2.458	58.8696
2.452	58.7998
2.446	58.8368
2.44	58.9264
2.434	59.1268
2.428	59.7087
2.422	60.481
2.416	61.382
2.41	62.2261
2.404	63.0095
2.398	63.4729
2.392	63.9476
2.386	64.1208
2.38	64.3063
2.374	64.508
2.368	64.589
2.362	64.4713
2.356	64.0977
2.35	63.6837
2.344	63.5797
2.338	63.9831
2.332	64.6664
2.326	65.6226
2.32	66.7434
2.314	67.8374
2.308	68.877
2.302	69.8457
2.296	70.5997
2.29	71.2447
2.284	71.7025
2.278	71.9592
2.272	72.0083
2.266	71.9818
2.26	71.748
2.254	71.4663
2.248	71.1377
2.242	70.9761
2.236	70.5459
2.23	69.9843
2.224	68.9864
2.218	67.447
2.212	65.2897
2.206	63.1738
2.2	62.009
2.194	62.2402
2.188	63.9531
2.182	66.6583
2.176	69.3076
2.17	71.4652
2.164	72.9664
2.158	74.07
2.152	74.8974
2.146	75.5868
2.14	75.8701
2.134	76.0126
2.128	75.8304
2.122	75.5792
2.116	75.2925
2.11	75.2035
2.104	75.1992
2.098	75.1495
2.092	75.4794
2.086	75.7046
2.08	75.748
2.074	75.8411
2.068	75.7787
2.062	75.8024
2.056	75.7295
2.05	75.5817
2.044	75.446
2.038	75.2169
2.032	74.9878
2.026	74.7029
2.02	74.3093
2.014	73.8863
2.008	73.424
2.002	72.901
1.996	72.4587
1.99	71.8735
1.984	71.3746
1.978	70.7813
1.972	70.3816
1.966	69.8573
1.96	69.5618
1.954	69.1934
1.948	68.9699
1.942	68.7481
1.936	68.6612
1.93	68.5947
1.924	68.7633
1.918	69.0092
1.912	69.6332
1.906	70.8008
1.9	72.5972
1.894	74.5072
1.888	76.2952
1.882	77.4562
1.876	78.326
1.87	78.7088
1.864	79.2849
1.858	79.4488
1.852	79.5195
1.846	79.5491
1.84	79.6449
1.834	79.5796
1.828	79.6303
1.822	79.7641
1.816	79.7125
1.81	79.7476
1.804	79.7507
1.798	79.8165
1.792	79.8604
1.786	79.8404
1.78	79.7767
1.774	79.7923
1.768	79.8465
1.762	79.8116
1.756	79.9445
1.75	79.9267
1.744	80.005
1.738	80.0428
1.732	80.1069
1.726	80.1165
1.72	80.12
1.714	80.0839
1.708	80.0932
1.702	80.1078
1.696	80.0723
1.69	80.1114
1.684	80.0522
1.678	80.0368
1.672	79.9885
1.666	79.9179
1.66	79.8869
1.654	79.9218
1.648	79.973
1.642	79.8651
1.636	79.7952
1.63	79.7753
1.624	79.7751
1.618	79.7258
1.612	79.7084
1.606	79.6291
1.6	79.5721
1.594	79.566
1.588	79.471
1.582	79.4371
1.576	79.3617
1.57	79.2299
1.564	79.1322
1.558	79.0254
1.552	78.9808
1.546	78.8679
1.54	78.7986
1.534	78.6799
1.528	78.5493
1.522	78.3906
1.516	78.2552
1.51	78.0836
1.504	77.8966
1.498	77.6649
1.492	77.4844
1.486	77.3496
1.48	77.0717
1.474	76.8068
1.468	76.6803
1.462	76.4849
1.456	76.3816
1.45	76.2017
1.444	75.9722
1.438	75.718
1.432	75.1728
1.426	73.9363
1.42	71.166
1.414	67.7249
1.408	68.2519
1.402	70.1114
1.396	73.2031
1.39	76.2791
1.384	77.2701
1.378	77.5934
1.372	77.7668
1.366	77.8203
1.36	77.8038
1.354	77.9159
1.348	77.8055
1.342	77.8263
1.336	77.6231
1.33	77.6986
1.324	77.5618
1.318	77.5717
1.312	77.4615
1.306	77.4711
1.3	77.4601
1.294	77.4127
1.288	77.4375
1.282	77.2938
1.276	77.2388
1.27	77.2288
1.264	77.0613
1.258	77.0721
1.252	76.9087
1.246	76.823
1.24	76.7686
1.234	76.6692
1.228	76.5993
1.222	76.4315
1.216	76.4556
1.21	76.344
1.204	76.1975
1.198	76.0857
1.192	76.0426
1.186	75.9347
1.18	75.8439
1.174	75.7391
1.168	75.6749
1.162	75.6175
1.156	75.5525
1.15	75.4742
1.144	75.3981
1.138	75.3499
1.132	75.322
1.126	75.2866
1.12	75.1117
1.114	75.102
1.108	74.9917
1.102	74.9393
1.096	74.8382
1.09	74.7709
1.084	74.7235
1.078	74.5689
1.072	74.6662
1.066	74.5148
1.06	74.5076
1.054	74.3883
1.048	74.3249
1.042	74.3467
1.036	74.263
1.03	74.1234
1.024	74.1568
1.018	73.9886
1.012	73.9865
1.006	73.9334
1	73.8141
0.994	73.7207
0.988	73.6189
0.982	73.5089
0.976	73.3677
0.97	73.092
0.964	72.8991
0.958	72.8526
0.952	72.8574
0.946	72.8002
0.94	72.5937
0.934	72.4833
0.928	72.3984
0.922	72.3244
0.916	72.2477
0.91	72.1089
0.904	72.0338
0.898	71.916
0.892	71.8767
0.886	71.8719
0.88	71.769
0.874	71.7149
0.868	71.7421
0.862	71.6662
0.856	71.9085
0.85	71.864
0.844	71.8672
0.838	71.9069
0.832	71.8431
0.826	71.8896
0.82	71.8536
0.814	71.8729
0.808	71.8305
0.802	71.8469
0.796	71.7336
0.79	71.722
0.784	71.6471
0.778	71.5446
0.772	71.4801
0.766	71.4203
0.76	71.2926
0.754	71.2445
0.748	71.1525
0.742	71.0595
0.736	70.9183
0.73	70.8081
0.724	70.678
0.718	70.5187
0.712	70.3723
0.706	70.1931
0.7	70.0037
0.694	69.8467
0.688	69.6531
0.682	69.4712
0.676	69.2858
0.67	69.0995
0.664	68.9476
0.658	68.74
0.652	68.5797
0.646	68.4086
0.64	68.2283
0.634	68.0561
0.628	67.844
0.622	67.6111
0.616	67.3631
0.61	66.9918
0.604	66.545
0.598	65.991
0.592	65.2405
0.586	64.2741
0.58	63.1012
0.574	61.7526
0.568	60.292
0.562	58.7844
0.556	57.2994
0.55	55.8894
0.544	54.6307
0.538	53.4867
0.532	52.4273
0.526	51.4447
0.52	50.5042
0.514	49.6184
0.508	48.7543
0.502	47.8686
0.496	46.9639
0.49	46.114
0.484	45.3011
0.478	44.6759
0.472	44.0984
0.466	43.5332
0.46	42.9422
0.454	42.2508
0.448	41.3707
0.442	40.2433
0.436	38.9723
0.43	37.6419
0.424	36.4736
0.418	35.3933
0.412	34.4499
0.406	33.5112
0.4	32.5537
