Name: Epidote Ca_2(Al,Fe^3+)_3O.SiO_4.Si_2O_7.OH
Type: Mineral
Class: Silicates
Subclass: Sorosilicate
Particle Size: 0-45um
Sample No.: SS-1C
Owner: JPL
Origin: USA, Colorado.
Measurement: Hemispherical reflectance
X Units: Wavelength (micrometers)
Y Units: Reflectance (percent)
wavelength	value
2.5	54.5539
2.494	54.238
2.488	54.4818
2.482	54.7732
2.476	54.964
2.47	55.0304
2.464	55.2102
2.458	55.4694
2.452	55.7024
2.446	55.9068
2.44	56.0418
2.434	56.2129
2.428	56.3309
2.422	56.4716
2.416	56.4166
2.41	56.3829
2.404	56.2842
2.398	56.0232
2.392	55.9167
2.386	55.7965
2.38	55.8178
2.374	55.8687
2.368	55.8031
2.362	55.3174
2.356	54.4114
2.35	53.3577
2.344	52.4452
2.338	51.8294
2.332	51.7829
2.326	51.9376
2.32	52.4303
2.314	52.9648
2.308	53.5705
2.302	54.1621
2.296	54.7804
2.29	55.5057
2.284	56.1843
2.278	56.762
2.272	57.1586
2.266	57.309
2.26	57.3449
2.254	57.2623
2.248	57.5147
2.242	57.8475
2.236	58.3563
2.23	58.672
2.224	58.8377
2.218	59.0209
2.212	59.2442
2.206	59.3295
2.2	59.4835
2.194	59.5178
2.188	59.5938
2.182	59.6732
2.176	59.9218
2.17	59.9893
2.164	60.1023
2.158	60.2518
2.152	60.321
2.146	60.3362
2.14	60.3457
2.134	60.2204
2.128	60.1027
2.122	59.9865
2.116	59.7931
2.11	59.612
2.104	59.4784
2.098	59.3752
2.092	59.4223
2.086	59.4877
2.08	59.5392
2.074	59.5537
2.068	59.5917
2.062	59.5582
2.056	59.6186
2.05	59.6072
2.044	59.7301
2.038	59.7063
2.032	59.63
2.026	59.5694
2.02	59.6325
2.014	59.4456
2.008	59.3696
2.002	59.3638
1.996	59.1638
1.99	59.0857
1.984	58.9095
1.978	58.7878
1.972	58.7028
1.966	58.6302
1.96	58.5084
1.954	58.4588
1.948	58.3693
1.942	58.3091
1.936	58.2482
1.93	58.0814
1.924	57.7688
1.918	57.5123
1.912	57.2883
1.906	57.5615
1.9	58.3224
1.894	58.9786
1.888	59.533
1.882	59.9139
1.876	60.0514
1.87	60.2239
1.864	60.3291
1.858	60.3991
1.852	60.3916
1.846	60.3919
1.84	60.429
1.834	60.4338
1.828	60.4057
1.822	60.4109
1.816	60.5091
1.81	60.4722
1.804	60.4793
1.798	60.4795
1.792	60.4827
1.786	60.4022
1.78	60.4555
1.774	60.4687
1.768	60.4205
1.762	60.5043
1.756	60.4207
1.75	60.4184
1.744	60.5072
1.738	60.4996
1.732	60.5547
1.726	60.518
1.72	60.5684
1.714	60.48
1.708	60.448
1.702	60.4901
1.696	60.4403
1.69	60.4354
1.684	60.3477
1.678	60.3878
1.672	60.3433
1.666	60.3701
1.66	60.2719
1.654	60.3293
1.648	60.3555
1.642	60.2986
1.636	60.2605
1.63	60.2797
1.624	60.268
1.618	60.2216
1.612	60.2433
1.606	60.2063
1.6	60.1211
1.594	60.1807
1.588	60.0995
1.582	60.046
1.576	60.0212
1.57	59.9786
1.564	59.9844
1.558	59.827
1.552	59.7981
1.546	59.6942
1.54	59.7086
1.534	59.7619
1.528	59.7409
1.522	59.6974
1.516	59.7573
1.51	59.7234
1.504	59.6724
1.498	59.6097
1.492	59.6115
1.486	59.6211
1.48	59.619
1.474	59.4856
1.468	59.4134
1.462	59.3328
1.456	59.3276
1.45	59.1988
1.444	59.0897
1.438	59.0033
1.432	58.9087
1.426	58.8277
1.42	58.7369
1.414	58.7512
1.408	58.6252
1.402	58.529
1.396	58.2043
1.39	58.7088
1.384	59.3225
1.378	59.289
1.372	59.1639
1.366	59.2292
1.36	59.0408
1.354	59.0838
1.348	58.9908
1.342	58.9489
1.336	58.9396
1.33	58.8742
1.324	58.713
1.318	58.68
1.312	58.6466
1.306	58.5466
1.3	58.4213
1.294	58.3637
1.288	58.2407
1.282	58.1688
1.276	58.0395
1.27	57.926
1.264	57.8393
1.258	57.6595
1.252	57.6005
1.246	57.4627
1.24	57.3769
1.234	57.236
1.228	57.0502
1.222	56.9299
1.216	56.7686
1.21	56.6596
1.204	56.4758
1.198	56.2809
1.192	56.1595
1.186	55.9956
1.18	55.8146
1.174	55.5891
1.168	55.4774
1.162	55.3067
1.156	55.1487
1.15	54.9957
1.144	54.7316
1.138	54.7195
1.132	54.5098
1.126	54.358
1.12	54.1625
1.114	54.0168
1.108	53.9144
1.102	53.7738
1.096	53.6066
1.09	53.3961
1.084	53.3244
1.078	53.1759
1.072	53.0353
1.066	52.9164
1.06	52.7893
1.054	52.5735
1.048	52.5349
1.042	52.4132
1.036	52.2709
1.03	52.2465
1.024	52.1915
1.018	52.1114
1.012	52.0257
1.006	51.9576
1	51.9194
0.994	51.8305
0.988	51.7039
0.982	51.6359
0.976	51.576
0.97	51.5672
0.964	51.4745
0.958	51.4672
0.952	51.3072
0.946	51.2915
0.94	51.3322
0.934	51.2129
0.928	51.1374
0.922	51.1975
0.916	51.1256
0.91	51.0901
0.904	51.0479
0.898	51.018
0.892	51.0538
0.886	50.9523
0.88	50.9707
0.874	50.9973
0.868	50.9836
0.862	50.995
0.856	51.1493
0.85	51.1656
0.844	51.1961
0.838	51.1724
0.832	51.1691
0.826	51.1491
0.82	51.1297
0.814	51.0882
0.808	51.0345
0.802	51.0234
0.796	50.8866
0.79	50.7603
0.784	50.6302
0.778	50.4679
0.772	50.2944
0.766	50.159
0.76	49.9878
0.754	49.819
0.748	49.6723
0.742	49.5007
0.736	49.3531
0.73	49.2103
0.724	49.0536
0.718	48.8796
0.712	48.7201
0.706	48.585
0.7	48.4079
0.694	48.2343
0.688	48.0784
0.682	47.9026
0.676	47.7176
0.67	47.5155
0.664	47.3216
0.658	47.1425
0.652	46.9426
0.646	46.7575
0.64	46.601
0.634	46.4333
0.628	46.2978
0.622	46.1759
0.616	46.0682
0.61	45.9809
0.604	45.8954
0.598	45.8295
0.592	45.7715
0.586	45.6451
0.58	45.4908
0.574	45.2791
0.568	44.9727
0.562	44.5815
0.556	44.1067
0.55	43.4924
0.544	42.75
0.538	41.8955
0.532	40.9384
0.526	39.9623
0.52	39.0012
0.514	38.0279
0.508	37.0359
0.502	36.0437
0.496	35.0307
0.49	33.9352
0.484	32.719
0.478	31.5154
0.472	30.6979
0.466	30.5966
0.46	30.2707
0.454	29.5771
0.448	29.6108
0.442	29.0409
0.436	28.0251
0.43	26.5551
0.424	25.0813
0.418	23.6738
0.412	22.4467
0.406	21.5063
0.4	20.9768
