Name: Calcite CaCO_3
Type: Mineral
Class: Carbonates
Particle Size: 45-125um
Sample No.: C-3E
Owner: JPL
Origin: None.
Measurement: Hemispherical reflectance
X Units: Wavelength (micrometers)
Y Units: Reflectance (percent)
wavelength	value
2.5	51.0906
2.494	51.6996
2.488	52.5984
2.482	54.1749
2.476	56.5077
2.47	59.3142
2.464	62.3515
2.458	65.2237
2.452	67.7305
2.446	69.9725
2.44	71.7942
2.434	73.4752
2.428	75.0452
2.422	76.4723
2.416	77.6311
2.41	78.3367
2.404	78.7671
2.398	78.9257
2.392	79.1274
2.386	79.0327
2.38	78.0823
2.374	76.3202
2.368	73.4911
2.362	69.4446
2.356	64.7449
2.35	60.2718
2.344	57.1868
2.338	55.8277
2.332	56.3159
2.326	57.9111
2.32	59.8162
2.314	61.4936
2.308	62.6883
2.302	63.651
2.296	64.6075
2.29	65.9305
2.284	67.5348
2.278	69.5442
2.272	71.7038
2.266	73.5929
2.26	75.3115
2.254	76.8661
2.248	78.1999
2.242	79.4083
2.236	80.5714
2.23	81.6384
2.224	82.6475
2.218	83.4063
2.212	84.1898
2.206	84.8274
2.2	85.4033
2.194	85.6539
2.188	85.7406
2.182	85.7122
2.176	85.4024
2.17	84.8521
2.164	84.418
2.158	84.2594
2.152	84.4744
2.146	85.2074
2.14	86.2345
2.134	87.0402
2.128	87.3974
2.122	87.5008
2.116	87.5383
2.11	87.5649
2.104	87.6969
2.098	87.9122
2.092	88.1548
2.086	88.3737
2.08	88.5633
2.074	88.7382
2.068	88.8967
2.062	89.0348
2.056	89.0843
2.05	89.1101
2.044	89.1295
2.038	89.0061
2.032	88.7938
2.026	88.4354
2.02	87.9118
2.014	87.2813
2.008	86.0667
2.002	84.4727
1.996	83.8005
1.99	84.6795
1.984	85.6201
1.978	86.212
1.972	86.4185
1.966	86.6447
1.96	87.003
1.954	87.4679
1.948	87.9839
1.942	88.2576
1.936	88.5652
1.93	88.6771
1.924	88.8398
1.918	88.8531
1.912	88.8973
1.906	88.9762
1.9	88.7928
1.894	88.3633
1.888	87.4393
1.882	85.5942
1.876	84.4558
1.87	85.4007
1.864	86.6471
1.858	87.3402
1.852	87.7777
1.846	88.0762
1.84	88.36
1.834	88.7174
1.828	89.1567
1.822	89.4679
1.816	89.6576
1.81	89.8146
1.804	90.024
1.798	90.0198
1.792	90.1055
1.786	90.171
1.78	90.0013
1.774	89.894
1.768	89.648
1.762	89.3556
1.756	89.2474
1.75	89.3274
1.744	89.379
1.738	89.3473
1.732	89.416
1.726	89.5221
1.72	89.5277
1.714	89.5929
1.708	89.6278
1.702	89.7635
1.696	89.7925
1.69	89.8414
1.684	89.8089
1.678	89.8345
1.672	89.7631
1.666	89.8966
1.66	89.7463
1.654	89.6607
1.648	89.6422
1.642	89.6726
1.636	89.7263
1.63	89.7595
1.624	89.6545
1.618	89.7384
1.612	89.6894
1.606	89.6607
1.6	89.7079
1.594	89.6138
1.588	89.5739
1.582	89.5077
1.576	89.4356
1.57	89.2465
1.564	89.2908
1.558	89.2431
1.552	89.226
1.546	89.28
1.54	89.2305
1.534	89.2332
1.528	89.18
1.522	89.1138
1.516	89.1968
1.51	89.1624
1.504	89.1177
1.498	89.0541
1.492	88.961
1.486	88.9194
1.48	88.8453
1.474	88.9228
1.468	88.8809
1.462	88.8781
1.456	88.8682
1.45	88.8601
1.444	88.8079
1.438	88.8615
1.432	88.8827
1.426	88.8291
1.42	88.8504
1.414	88.7965
1.408	88.7817
1.402	88.8409
1.396	88.8816
1.39	89.0379
1.384	88.9828
1.378	88.9687
1.372	89.0016
1.366	89.1613
1.36	89.0195
1.354	89.0657
1.348	88.9268
1.342	88.9891
1.336	89.0155
1.33	89.1005
1.324	88.9959
1.318	88.9377
1.312	89.0106
1.306	89.0372
1.3	89.0297
1.294	88.9932
1.288	89.0101
1.282	88.9612
1.276	88.9198
1.27	88.9894
1.264	88.8737
1.258	88.897
1.252	88.9273
1.246	88.9492
1.24	88.8972
1.234	88.8492
1.228	88.7718
1.222	88.8502
1.216	88.7603
1.21	88.71
1.204	88.6726
1.198	88.656
1.192	88.6098
1.186	88.6023
1.18	88.5916
1.174	88.5748
1.168	88.5692
1.162	88.4876
1.156	88.4809
1.15	88.4807
1.144	88.474
1.138	88.4113
1.132	88.4297
1.126	88.4976
1.12	88.5126
1.114	88.4856
1.108	88.5626
1.102	88.4891
1.096	88.4594
1.09	88.6088
1.084	88.6416
1.078	88.6313
1.072	88.7371
1.066	88.7328
1.06	88.8233
1.054	88.896
1.048	88.9291
1.042	89.0328
1.036	89.1717
1.03	89.1403
1.024	89.2801
1.018	89.3637
1.012	89.4649
1.006	89.4971
1	89.5548
0.994	89.6575
0.988	89.7624
0.982	89.7759
0.976	89.8394
0.97	89.9608
0.964	89.964
0.958	90.1129
0.952	90.172
0.946	90.2425
0.94	90.2618
0.934	90.2845
0.928	90.3827
0.922	90.4464
0.916	90.4668
0.91	90.5592
0.904	90.5472
0.898	90.5852
0.892	90.6284
0.886	90.6148
0.88	90.6965
0.874	90.7086
0.868	90.644
0.862	90.7106
0.856	90.6541
0.85	90.7349
0.844	90.7468
0.838	90.8063
0.832	90.7592
0.826	90.8476
0.82	90.8207
0.814	90.8448
0.808	90.8316
0.802	90.7716
0.796	90.7437
0.79	90.774
0.784	90.8239
0.778	90.7814
0.772	90.792
0.766	90.739
0.76	90.7705
0.754	90.7117
0.748	90.6865
0.742	90.6623
0.736	90.684
0.73	90.7239
0.724	90.7086
0.718	90.7242
0.712	90.6716
0.706	90.634
0.7	90.6456
0.694	90.6158
0.688	90.5729
0.682	90.5341
0.676	90.4932
0.67	90.4703
0.664	90.4321
0.658	90.3534
0.652	90.3041
0.646	90.2955
0.64	90.2191
0.634	90.1243
0.628	90.0605
0.622	89.9842
0.616	89.9035
0.61	89.8267
0.604	89.7437
0.598	89.6886
0.592	89.6435
0.586	89.513
0.58	89.4446
0.574	89.3646
0.568	89.2883
0.562	89.1642
0.556	89.0313
0.55	88.8514
0.544	88.7167
0.538	88.557
0.532	88.3888
0.526	88.1904
0.52	88.0566
0.514	87.882
0.508	87.7193
0.502	87.5022
0.496	87.3185
0.49	87.0321
0.484	86.7253
0.478	86.3716
0.472	86.0265
0.466	85.577
0.46	85.041
0.454	84.4462
0.448	83.7658
0.442	82.9752
0.436	82.1427
0.43	81.2022
0.424	80.2211
0.418	79.1754
0.412	78.0555
0.406	76.8137
0.4	75.5229
