Name: Pyrolusite MnO_2
Type: Mineral
Class: Oxides
Particle Size: 45-125um
Sample No.: O-6A
Owner: JPL
Origin: Mexico, Chihuahua.
Measurement: Hemispherical reflectance
X Units: Wavelength (micrometers)
Y Units: Reflectance (percent)
wavelength	value
2.5	13.0317
2.494	13.1959
2.488	13.0884
2.482	13.0521
2.476	13.166
2.47	13.2439
2.464	13.1977
2.458	13.1029
2.452	13.2714
2.446	13.0718
2.44	13.2191
2.434	13.2269
2.428	13.267
2.422	13.2445
2.416	13.1845
2.41	13.2213
2.404	13.1938
2.398	13.3403
2.392	13.2002
2.386	13.2904
2.38	13.3471
2.374	13.3218
2.368	13.3242
2.362	13.3544
2.356	13.3206
2.35	13.3544
2.344	13.3862
2.338	13.3292
2.332	13.3264
2.326	13.2838
2.32	13.2704
2.314	13.3381
2.308	13.2517
2.302	13.3092
2.296	13.2966
2.29	13.3042
2.284	13.2457
2.278	13.2755
2.272	13.3033
2.266	13.319
2.26	13.1742
2.254	13.3017
2.248	13.2699
2.242	13.2152
2.236	13.2872
2.23	13.3519
2.224	13.1989
2.218	13.2663
2.212	13.3775
2.206	13.2083
2.2	13.2899
2.194	13.3329
2.188	13.3938
2.182	13.3273
2.176	13.4197
2.17	13.395
2.164	13.479
2.158	13.5482
2.152	13.5244
2.146	13.5086
2.14	13.5063
2.134	13.5359
2.128	13.4448
2.122	13.4473
2.116	13.4446
2.11	13.3542
2.104	13.3003
2.098	13.2991
2.092	13.279
2.086	13.3124
2.08	13.3415
2.074	13.3687
2.068	13.412
2.062	13.3887
2.056	13.3601
2.05	13.373
2.044	13.4084
2.038	13.4414
2.032	13.3823
2.026	13.4025
2.02	13.3693
2.014	13.4688
2.008	13.4039
2.002	13.3429
1.996	13.368
1.99	13.402
1.984	13.3663
1.978	13.3788
1.972	13.3248
1.966	13.3388
1.96	13.3054
1.954	13.2849
1.948	13.4204
1.942	13.3043
1.936	13.3163
1.93	13.3461
1.924	13.3733
1.918	13.3718
1.912	13.3239
1.906	13.3715
1.9	13.3481
1.894	13.3674
1.888	13.3945
1.882	13.324
1.876	13.3187
1.87	13.3158
1.864	13.3779
1.858	13.4039
1.852	13.4069
1.846	13.399
1.84	13.3442
1.834	13.3739
1.828	13.3341
1.822	13.3011
1.816	13.2992
1.81	13.3586
1.804	13.3724
1.798	13.3742
1.792	13.3757
1.786	13.307
1.78	13.3142
1.774	13.3291
1.768	13.2831
1.762	13.3467
1.756	13.2325
1.75	13.2525
1.744	13.2547
1.738	13.2671
1.732	13.2131
1.726	13.1941
1.72	13.2061
1.714	13.1916
1.708	13.1886
1.702	13.214
1.696	13.1316
1.69	13.2211
1.684	13.2456
1.678	13.1273
1.672	13.1215
1.666	13.2631
1.66	13.1021
1.654	13.1221
1.648	13.1032
1.642	13.2262
1.636	13.1177
1.63	13.1204
1.624	13.1155
1.618	13.0342
1.612	13.0999
1.606	13.02
1.6	13.0964
1.594	13.1428
1.588	13.0436
1.582	13.0561
1.576	12.9677
1.57	13.0414
1.564	13.0749
1.558	13.0184
1.552	13.0291
1.546	13.0702
1.54	12.9816
1.534	13.0092
1.528	13.0129
1.522	12.9585
1.516	12.9535
1.51	13.0194
1.504	12.9199
1.498	12.9563
1.492	12.9316
1.486	12.9251
1.48	12.8566
1.474	12.9333
1.468	12.7938
1.462	12.8747
1.456	12.8392
1.45	12.7926
1.444	12.7964
1.438	12.7865
1.432	12.6814
1.426	12.625
1.42	12.6152
1.414	12.6638
1.408	12.5863
1.402	12.5395
1.396	12.5442
1.39	12.4434
1.384	12.3594
1.378	12.2519
1.372	12.2144
1.366	12.1908
1.36	11.9882
1.354	11.9112
1.348	11.757
1.342	11.6972
1.336	11.5316
1.33	11.4729
1.324	11.2614
1.318	11.1719
1.312	11.063
1.306	10.9675
1.3	10.8534
1.294	10.7344
1.288	10.6452
1.282	10.5802
1.276	10.4696
1.27	10.3462
1.264	10.1543
1.258	10.1493
1.252	10.0551
1.246	9.93753
1.24	9.87584
1.234	9.78461
1.228	9.74459
1.222	9.63913
1.216	9.58072
1.21	9.46116
1.204	9.46411
1.198	9.41025
1.192	9.34043
1.186	9.29152
1.18	9.20879
1.174	9.20305
1.168	9.15294
1.162	9.04573
1.156	9.00255
1.15	8.91275
1.144	8.98011
1.138	8.88223
1.132	8.93263
1.126	8.72839
1.12	8.82897
1.114	8.80058
1.108	8.7019
1.102	8.72397
1.096	8.74068
1.09	8.72143
1.084	8.68476
1.078	8.66658
1.072	8.66446
1.066	8.70943
1.06	8.63905
1.054	8.61272
1.048	8.64018
1.042	8.58422
1.036	8.47996
1.03	8.53046
1.024	8.55844
1.018	8.64996
1.012	8.5362
1.006	8.58709
1	8.6097
0.994	8.53742
0.988	8.58343
0.982	8.59016
0.976	8.50832
0.97	8.58225
0.964	8.65212
0.958	8.63299
0.952	8.6214
0.946	8.60745
0.94	8.5874
0.934	8.63367
0.928	8.62807
0.922	8.67894
0.916	8.66549
0.91	8.68161
0.904	8.65691
0.898	8.65748
0.892	8.65535
0.886	8.67351
0.88	8.68277
0.874	8.68149
0.868	8.6729
0.862	8.72913
0.856	8.86023
0.85	8.87015
0.844	8.88825
0.838	8.89127
0.832	8.90726
0.826	8.9302
0.82	8.92659
0.814	8.93544
0.808	8.94103
0.802	8.95922
0.796	8.95796
0.79	8.97089
0.784	8.98677
0.778	8.98423
0.772	8.98963
0.766	8.99683
0.76	9.01219
0.754	9.01266
0.748	9.02364
0.742	9.03972
0.736	9.04918
0.73	9.07467
0.724	9.08312
0.718	9.10198
0.712	9.12222
0.706	9.12549
0.7	9.14519
0.694	9.17393
0.688	9.19796
0.682	9.22382
0.676	9.24941
0.67	9.28086
0.664	9.31207
0.658	9.34077
0.652	9.3743
0.646	9.40669
0.64	9.44117
0.634	9.47547
0.628	9.50889
0.622	9.54619
0.616	9.58075
0.61	9.61782
0.604	9.6567
0.598	9.69639
0.592	9.74237
0.586	9.77514
0.58	9.81411
0.574	9.85002
0.568	9.88735
0.562	9.92332
0.556	9.95696
0.55	9.99374
0.544	10.0262
0.538	10.0644
0.532	10.0971
0.526	10.1351
0.52	10.1667
0.514	10.2014
0.508	10.2385
0.502	10.2712
0.496	10.3029
0.49	10.3303
0.484	10.3494
0.478	10.3601
0.472	10.3758
0.466	10.388
0.46	10.4027
0.454	10.423
0.448	10.4196
0.442	10.4184
0.436	10.4192
0.43	10.409
0.424	10.4004
0.418	10.3856
0.412	10.3727
0.406	10.3577
0.4	10.3405
