Name: Nontronite Na_0.33Fe_2^3+(Si,Al)_4O_10(OH)_2.H_2O
Type: Mineral
Class: Silicates
Subclass: Phyllosilicates
Particle Size: 45-125um
Sample No.: PS-6B
Owner: JPL
Origin: Germany, Westphalia, Hohen Hagen.
Measurement: Hemispherical reflectance
X Units: Wavelength (micrometers)
Y Units: Reflectance (percent)
wavelength	value
2.5	22.7812
2.494	23.089
2.488	23.7038
2.482	24.065
2.476	24.6313
2.47	25.304
2.464	25.6831
2.458	26.2802
2.452	26.7369
2.446	27.2169
2.44	27.5982
2.434	27.9507
2.428	28.168
2.422	28.4865
2.416	28.543
2.41	28.6264
2.404	28.5956
2.398	29.0393
2.392	29.6736
2.386	30.781
2.38	31.9917
2.374	33.3021
2.368	34.3563
2.362	35.1862
2.356	36.0323
2.35	36.7031
2.344	37.3468
2.338	37.9506
2.332	38.295
2.326	38.377
2.32	38.2917
2.314	37.6613
2.308	36.4855
2.302	34.5885
2.296	32.4878
2.29	31.0066
2.284	31.0463
2.278	32.5234
2.272	34.8151
2.266	37.5183
2.26	39.9488
2.254	41.9532
2.248	43.3959
2.242	44.3867
2.236	44.8591
2.23	45.2403
2.224	45.5183
2.218	45.6626
2.212	45.9489
2.206	46.0906
2.2	46.2797
2.194	46.5433
2.188	46.8104
2.182	47.0618
2.176	47.3437
2.17	47.597
2.164	47.789
2.158	47.9046
2.152	47.9196
2.146	47.782
2.14	47.6729
2.134	47.3842
2.128	47.1757
2.122	46.8637
2.116	46.5266
2.11	46.2094
2.104	45.7666
2.098	45.3748
2.092	45.0485
2.086	44.8104
2.08	44.5066
2.074	44.1693
2.068	43.8085
2.062	43.4287
2.056	43.0042
2.05	42.6089
2.044	41.9733
2.038	41.4818
2.032	40.8076
2.026	39.9974
2.02	39.2027
2.014	38.3558
2.008	37.5384
2.002	36.6377
1.996	35.7891
1.99	34.8073
1.984	33.938
1.978	33.2023
1.972	32.495
1.966	31.8778
1.96	31.2487
1.954	30.7497
1.948	30.2132
1.942	29.5653
1.936	28.8454
1.93	27.9921
1.924	26.815
1.918	25.6105
1.912	24.6474
1.906	24.6706
1.9	27.5653
1.894	32.8467
1.888	38.5414
1.882	43.351
1.876	46.7908
1.87	49.6744
1.864	51.528
1.858	52.6359
1.852	53.3242
1.846	53.8617
1.84	54.2449
1.834	54.438
1.828	54.6079
1.822	54.615
1.816	54.6722
1.81	54.7306
1.804	54.7538
1.798	54.7717
1.792	54.8334
1.786	54.9473
1.78	55.0784
1.774	55.2288
1.768	55.4205
1.762	55.6052
1.756	55.8693
1.75	56.0552
1.744	56.2209
1.738	56.3819
1.732	56.6027
1.726	56.7253
1.72	56.7962
1.714	56.9544
1.708	56.9848
1.702	57.0191
1.696	57.0794
1.69	57.1333
1.684	57.0696
1.678	57.1019
1.672	57.054
1.666	57.1001
1.66	57.0431
1.654	56.9854
1.648	57.0109
1.642	56.9255
1.636	56.8338
1.63	56.8021
1.624	56.7464
1.618	56.6609
1.612	56.56
1.606	56.4227
1.6	56.2836
1.594	56.1391
1.588	56.064
1.582	55.8408
1.576	55.727
1.57	55.5238
1.564	55.2466
1.558	55.0671
1.552	54.8778
1.546	54.4843
1.54	54.2297
1.534	53.8499
1.528	53.4799
1.522	53.0586
1.516	52.6263
1.51	52.1627
1.504	51.5545
1.498	51.0117
1.492	50.396
1.486	49.6536
1.48	48.8852
1.474	47.9851
1.468	47.1733
1.462	46.86
1.456	46.5468
1.45	45.2795
1.444	42.8246
1.438	40.3672
1.432	39.8403
1.426	41.0701
1.42	41.4644
1.414	42.2376
1.408	43.9658
1.402	46.7277
1.396	50.2226
1.39	53.3653
1.384	55.2602
1.378	56.5666
1.372	57.3244
1.366	57.7146
1.36	57.9683
1.354	58.2686
1.348	58.365
1.342	58.6959
1.336	58.858
1.33	58.9764
1.324	59.0166
1.318	59.3842
1.312	59.6594
1.306	59.7293
1.3	59.7397
1.294	59.7242
1.288	59.7269
1.282	59.6365
1.276	59.5386
1.27	59.4594
1.264	59.3188
1.258	59.195
1.252	58.9938
1.246	58.7739
1.24	58.5765
1.234	58.2631
1.228	58.0308
1.222	57.771
1.216	57.4566
1.21	57.0302
1.204	56.6958
1.198	56.2987
1.192	55.8736
1.186	55.4048
1.18	54.8905
1.174	54.228
1.168	53.6623
1.162	52.9965
1.156	52.3417
1.15	51.7794
1.144	51.3205
1.138	50.7131
1.132	50.0676
1.126	49.2987
1.12	48.4839
1.114	47.7211
1.108	46.8795
1.102	46.1393
1.096	45.2296
1.09	44.4306
1.084	43.7312
1.078	42.956
1.072	42.1904
1.066	41.4752
1.06	40.7691
1.054	40.0153
1.048	39.3556
1.042	38.7634
1.036	38.1884
1.03	37.524
1.024	37.0987
1.018	36.5592
1.012	36.0574
1.006	35.5934
1	35.1649
0.994	34.8606
0.988	34.4315
0.982	34.132
0.976	33.8317
0.97	33.6165
0.964	33.4496
0.958	33.3346
0.952	33.2141
0.946	33.0927
0.94	33.0236
0.934	33.0492
0.928	32.9997
0.922	33.0485
0.916	33.0685
0.91	33.2214
0.904	33.2068
0.898	33.4923
0.892	33.6839
0.886	34.0044
0.88	34.218
0.874	34.4834
0.868	34.9414
0.862	35.2792
0.856	35.9508
0.85	36.4329
0.844	36.9353
0.838	37.4698
0.832	38.0015
0.826	38.5813
0.82	39.1878
0.814	39.7768
0.808	40.3188
0.802	40.8552
0.796	41.364
0.79	41.8475
0.784	42.2623
0.778	42.5784
0.772	42.7927
0.766	42.9349
0.76	42.9236
0.754	42.8133
0.748	42.563
0.742	42.1689
0.736	41.6346
0.73	40.9979
0.724	40.2324
0.718	39.3875
0.712	38.4392
0.706	37.4418
0.7	36.4042
0.694	35.3315
0.688	34.2418
0.682	33.2333
0.676	32.2759
0.67	31.4167
0.664	30.735
0.658	30.2173
0.652	29.8551
0.646	29.6254
0.64	29.4792
0.634	29.4261
0.628	29.4526
0.622	29.5432
0.616	29.6981
0.61	29.8676
0.604	30.0155
0.598	30.0884
0.592	30.0675
0.586	29.8689
0.58	29.4836
0.574	28.8963
0.568	28.0972
0.562	27.0994
0.556	25.8208
0.55	24.3439
0.544	22.7048
0.538	20.9876
0.532	19.323
0.526	17.8051
0.52	16.499
0.514	15.3047
0.508	14.2351
0.502	13.2797
0.496	12.3852
0.49	11.4848
0.484	10.5283
0.478	9.4889
0.472	8.41435
0.466	7.52999
0.46	6.97081
0.454	6.66334
0.448	6.4427
0.442	6.25134
0.436	6.09783
0.43	5.94636
0.424	5.83753
0.418	5.7468
0.412	5.66409
0.406	5.5652
0.4	5.42135
