Name: Hematite alpha Fe_2O_3
Type: Mineral
Class: Oxides
Particle Size: 45-125um
Sample No.: O-1A
Owner: JPL
Wavelength Range: VNIR-SWIR
Origin: USA, Alabama, Birmingham
Measurement: Hemispherical reflectance
X Units: Wavelength (micrometers)
Y Units: Reflectance (percent)
wavelength	value
0.4	6.38
0.403	6.41
0.406	6.35
0.409	6.56
0.412	6.55
0.415	6.52
0.418	6.57
0.421	6.44
0.424	6.55
0.427	6.62
0.43	6.61
0.433	6.56
0.436	6.56
0.439	6.6
0.442	6.55
0.445	6.62
0.448	6.61
0.451	6.61
0.454	6.53
0.457	6.49
0.46	6.53
0.463	6.38
0.466	6.43
0.469	6.41
0.472	6.42
0.475	6.36
0.478	6.43
0.481	6.32
0.484	6.28
0.487	6.39
0.49	6.37
0.493	6.34
0.496	6.37
0.499	6.3
0.502	6.23
0.505	6.33
0.508	6.28
0.511	6.39
0.514	6.38
0.517	6.4
0.52	6.39
0.523	6.32
0.526	6.47
0.529	6.46
0.532	6.49
0.535	6.55
0.538	6.62
0.541	6.6
0.544	6.63
0.547	6.83
0.55	6.87
0.553	7.04
0.556	7.15
0.559	7.23
0.562	7.44
0.565	7.53
0.568	7.67
0.571	7.96
0.574	8.11
0.577	8.3
0.58	8.44
0.583	8.63
0.586	8.73
0.589	9.1
0.592	9.21
0.595	9.27
0.598	9.42
0.601	9.56
0.604	9.56
0.607	9.64
0.61	9.73
0.613	9.73
0.616	9.73
0.619	9.87
0.622	9.78
0.625	9.73
0.628	9.83
0.631	9.76
0.634	9.8
0.637	9.8
0.64	9.74
0.643	9.71
0.646	9.83
0.649	9.8
0.652	9.91
0.655	9.88
0.658	9.93
0.661	9.85
0.664	9.94
0.667	10.02
0.67	10.04
0.673	10.03
0.676	10.14
0.679	10.15
0.682	10.1
0.685	10.23
0.688	10.35
0.691	10.44
0.694	10.48
0.697	10.44
0.7	10.41
0.703	10.68
0.706	10.69
0.709	10.83
0.712	10.93
0.715	10.96
0.718	10.95
0.721	11.03
0.724	11.11
0.727	11.18
0.73	11.29
0.733	11.23
0.736	11.3
0.739	11.18
0.742	11.25
0.745	11.11
0.748	11.21
0.751	11.25
0.754	11.16
0.757	11.05
0.76	11.02
0.763	10.95
0.766	10.92
0.769	10.88
0.772	10.87
0.775	10.7
0.778	10.67
0.781	10.57
0.784	10.5
0.787	10.48
0.79	10.45
0.793	10.41
0.796	10.28
0.799	10.13
0.808	10.34
0.82	10.01
0.832	9.98
0.844	9.79
0.856	9.76
0.868	9.65
0.88	9.76
0.892	9.81
0.904	9.86
0.916	10.06
0.928	10.16
0.94	10.39
0.952	10.66
0.964	10.95
0.976	11.22
0.988	11.5
1	11.65
1.012	11.84
1.024	11.85
1.036	11.89
1.048	11.93
1.06	11.86
1.072	11.81
1.084	11.77
1.096	11.75
1.108	11.64
1.12	11.53
1.132	11.41
1.144	11.33
1.156	11.29
1.168	11.29
1.18	11.07
1.192	11.02
1.204	10.88
1.216	10.85
1.228	10.8
1.24	10.63
1.252	10.68
1.264	10.53
1.276	10.44
1.288	10.36
1.3	10.31
1.312	10.28
1.324	10.19
1.336	10.11
1.348	10.1
1.36	9.95
1.372	9.94
1.384	9.94
1.396	9.84
1.408	9.8
1.42	9.77
1.432	9.73
1.444	9.69
1.456	9.67
1.468	9.63
1.48	9.62
1.492	9.67
1.504	9.55
1.516	9.58
1.528	9.49
1.54	9.5
1.552	9.51
1.564	9.51
1.576	9.49
1.588	9.4
1.6	9.45
1.612	9.45
1.624	9.37
1.636	9.38
1.648	9.42
1.66	9.41
1.672	9.34
1.684	9.43
1.696	9.36
1.708	9.38
1.72	9.33
1.732	9.39
1.744	9.4
1.756	9.38
1.768	9.36
1.78	9.33
1.792	9.36
1.804	9.31
1.816	9.35
1.828	9.37
1.84	9.39
1.852	9.41
1.864	9.27
1.876	9.35
1.888	9.36
1.9	9.31
1.912	9.28
1.924	9.3
1.936	9.31
1.948	9.29
1.96	9.36
1.972	9.33
1.984	9.39
1.996	9.45
2.008	9.44
2.02	9.55
2.032	9.46
2.044	9.52
2.056	9.53
2.068	9.57
2.08	9.56
2.092	9.58
2.104	9.6
2.116	9.68
2.128	9.66
2.14	9.69
2.152	9.63
2.164	9.72
2.176	9.7
2.188	9.73
2.2	9.68
2.212	9.71
2.224	9.76
2.236	9.75
2.248	9.79
2.26	9.74
2.272	9.83
2.284	9.78
2.296	9.82
2.308	9.82
2.32	9.83
2.332	9.86
2.344	9.91
2.356	9.95
2.368	9.99
2.38	10.01
2.392	10.02
2.404	9.9
2.416	10.01
2.428	10.01
2.44	10.01
2.452	9.97
2.464	10.06
2.476	10.08
2.488	10.03
2.5	10.1
