Name: Epidote Ca_2(Al,Fe^3+)_3O.SiO_4.Si_2O_7.OH
Type: Mineral
Class: Silicates
Subclass: Sorosilicate
Particle Size: 45-125um
Sample No.: SS-1A
Owner: JPL
Origin: Mexico, Baja California Norte, Valle De La Trinidad.
Measurement: Hemispherical reflectance
X Units: Wavelength (micrometers)
Y Units: Reflectance (percent)
wavelength	value
2.5	51.6491
2.494	52.0835
2.488	52.5429
2.482	53.1569
2.476	53.5459
2.47	53.82
2.464	54.2417
2.458	54.5341
2.452	54.9317
2.446	55.284
2.44	55.5315
2.434	55.5979
2.428	55.6923
2.422	55.6395
2.416	55.4629
2.41	54.952
2.404	54.4696
2.398	53.7276
2.392	52.7224
2.386	51.3373
2.38	49.3425
2.374	46.6285
2.368	42.7332
2.362	37.6299
2.356	31.9812
2.35	26.9674
2.344	23.5046
2.338	22.1245
2.332	22.5269
2.326	24.4241
2.32	27.1478
2.314	30.6414
2.308	34.2061
2.302	37.5696
2.296	40.4634
2.29	42.8493
2.284	44.7672
2.278	45.9998
2.272	46.2544
2.266	45.3772
2.26	43.7578
2.254	42.7506
2.248	43.9893
2.242	47.1405
2.236	50.8807
2.23	53.6163
2.224	55.3405
2.218	56.5284
2.212	57.2204
2.206	57.756
2.2	58.1557
2.194	58.4538
2.188	58.7639
2.182	59.0551
2.176	59.4596
2.17	59.7251
2.164	59.9974
2.158	60.2201
2.152	60.3332
2.146	60.4501
2.14	60.4615
2.134	60.3626
2.128	60.2205
2.122	60.0583
2.116	59.9174
2.11	59.724
2.104	59.5921
2.098	59.5085
2.092	59.5325
2.086	59.5895
2.08	59.5445
2.074	59.5389
2.068	59.5669
2.062	59.5009
2.056	59.5366
2.05	59.5454
2.044	59.4399
2.038	59.4333
2.032	59.3194
2.026	59.1225
2.02	59.0847
2.014	59.0822
2.008	59.0222
2.002	58.935
1.996	58.7748
1.99	58.5905
1.984	58.5201
1.978	58.276
1.972	58.0598
1.966	57.685
1.96	57.3727
1.954	56.936
1.948	56.652
1.942	56.9418
1.936	57.2054
1.93	57.2804
1.924	57.3388
1.918	57.2653
1.912	57.2878
1.906	57.1415
1.9	57.0644
1.894	56.8609
1.888	56.6952
1.882	56.5033
1.876	56.457
1.87	56.4962
1.864	56.5443
1.858	56.306
1.852	56.1282
1.846	55.7233
1.84	55.1875
1.834	54.6723
1.828	54.5409
1.822	54.9766
1.816	55.4165
1.81	55.239
1.804	55.5785
1.798	55.4604
1.792	55.4257
1.786	55.2783
1.78	55.1933
1.774	54.9821
1.768	54.923
1.762	54.828
1.756	54.6465
1.75	54.5732
1.744	54.5061
1.738	54.4135
1.732	54.368
1.726	54.3159
1.72	54.1643
1.714	54.1088
1.708	53.9348
1.702	53.8117
1.696	53.7831
1.69	53.618
1.684	53.5236
1.678	53.3975
1.672	53.3737
1.666	53.3155
1.66	53.3169
1.654	53.1764
1.648	53.1705
1.642	53.1832
1.636	52.941
1.63	52.8379
1.624	52.8495
1.618	52.7312
1.612	52.7476
1.606	52.6311
1.6	52.3298
1.594	52.245
1.588	51.9639
1.582	51.758
1.576	51.5174
1.57	51.1754
1.564	50.7493
1.558	50.2276
1.552	49.8306
1.546	49.8276
1.54	50.1623
1.534	50.5257
1.528	50.8995
1.522	51.3698
1.516	51.782
1.51	52.2288
1.504	52.654
1.498	52.8888
1.492	53.0929
1.486	53.2952
1.48	53.4992
1.474	53.6211
1.468	53.7199
1.462	53.8377
1.456	53.8456
1.45	53.8886
1.444	53.8995
1.438	53.9359
1.432	53.893
1.426	53.9211
1.42	53.8927
1.414	53.7557
1.408	53.7259
1.402	53.8111
1.396	53.865
1.39	53.7699
1.384	53.7488
1.378	53.6887
1.372	53.6993
1.366	53.5558
1.36	53.4383
1.354	53.1554
1.348	53.0697
1.342	52.9892
1.336	52.958
1.33	52.7808
1.324	52.6924
1.318	52.5194
1.312	52.4703
1.306	52.3634
1.3	52.3058
1.294	52.2305
1.288	52.0727
1.282	51.9053
1.276	51.7792
1.27	51.5928
1.264	51.3761
1.258	51.1432
1.252	50.8815
1.246	50.6195
1.24	50.3588
1.234	49.994
1.228	49.6424
1.222	49.184
1.216	48.7521
1.21	48.2861
1.204	47.8655
1.198	47.2904
1.192	46.8571
1.186	46.2331
1.18	45.772
1.174	45.3213
1.168	44.7913
1.162	44.2983
1.156	43.8667
1.15	43.395
1.144	42.9322
1.138	42.5042
1.132	42.0762
1.126	41.6801
1.12	41.259
1.114	40.845
1.108	40.4779
1.102	40.1426
1.096	39.8536
1.09	39.6133
1.084	39.4397
1.078	39.2258
1.072	39.0984
1.066	39.0329
1.06	38.9159
1.054	38.7241
1.048	38.776
1.042	38.7462
1.036	38.7272
1.03	38.7469
1.024	38.8309
1.018	38.9417
1.012	39.0586
1.006	39.1533
1	39.2994
0.994	39.4481
0.988	39.5782
0.982	39.6344
0.976	39.8027
0.97	39.8866
0.964	40.0259
0.958	40.0917
0.952	40.2146
0.946	40.2689
0.94	40.3138
0.934	40.278
0.928	40.2506
0.922	40.1653
0.916	39.9961
0.91	39.8927
0.904	39.6512
0.898	39.3532
0.892	38.9986
0.886	38.6332
0.88	38.1964
0.874	37.746
0.868	37.3431
0.862	36.8364
0.856	36.5419
0.85	36.1351
0.844	35.8105
0.838	35.5289
0.832	35.2788
0.826	35.1154
0.82	34.9824
0.814	34.8845
0.808	34.8391
0.802	34.8313
0.796	34.763
0.79	34.7587
0.784	34.7341
0.778	34.6905
0.772	34.6363
0.766	34.5449
0.76	34.4698
0.754	34.3075
0.748	34.1469
0.742	33.9218
0.736	33.6845
0.73	33.3947
0.724	33.0773
0.718	32.7248
0.712	32.3343
0.706	31.9124
0.7	31.4453
0.694	30.9746
0.688	30.4666
0.682	29.9454
0.676	29.4134
0.67	28.8628
0.664	28.3125
0.658	27.7748
0.652	27.2452
0.646	26.7583
0.64	26.3094
0.634	25.9137
0.628	25.5629
0.622	25.2683
0.616	25.0517
0.61	24.866
0.604	24.7483
0.598	24.6866
0.592	24.6592
0.586	24.6548
0.58	24.6612
0.574	24.6748
0.568	24.6817
0.562	24.6944
0.556	24.7482
0.55	24.8339
0.544	24.844
0.538	24.6778
0.532	24.3983
0.526	24.0171
0.52	23.5239
0.514	22.8582
0.508	21.9558
0.502	20.8639
0.496	19.3868
0.49	17.4761
0.484	15.1479
0.478	13.0402
0.472	12.0411
0.466	12.5617
0.46	12.6401
0.454	11.778
0.448	13.3562
0.442	13.5669
0.436	12.548
0.43	10.7963
0.424	9.24016
0.418	7.94637
0.412	6.93103
0.406	6.31755
0.4	6.14236
