Name: Ecrinal Limestone
Type: Rock
Class: Sedimentary
Subclass: Limestone
Particle Size: Solid surface
Sample No.: Ward66.txt
Owner: JPL
Origin: Ward's Collection of American Rocks.  Sample locality - Lockport, Niagara County, New York.
Description: A light-gray, granular limestone containing abundan
Measurement: Hemispherical reflectance
X Units: Wavelength (micrometers)
Y Units: Reflectance (percent)
wavelength	value
15.3871	3.83421
15.118	3.78932
14.8581	3.79062
14.6069	4.18421
14.3642	4.07703
14.1293	4.48666
13.9021	3.08767
13.682	3.85532
13.4687	4.21218
13.2621	4.84587
13.0616	5.10031
12.8672	5.33322
12.6784	5.41353
12.4951	5.64438
12.317	5.91461
12.1439	5.97898
11.9757	6.34824
11.812	6.09001
11.6527	6.55403
11.4977	8.78539
11.3468	18.5105
11.1997	16.2629
11.0564	7.77151
10.9168	6.37549
10.7806	6.03555
10.6478	6.02232
10.5182	5.98664
10.3917	6.10854
10.2683	5.71649
10.1477	5.60486
10.0299	5.659
9.9148	5.54614
9.8024	5.71237
9.6925	6.02217
9.585	6.17836
9.4798	6.65248
9.377	6.71363
9.2763	6.88423
9.1778	7.05599
9.0814	6.99784
8.987	7.57994
8.8945	7.71325
8.8039	7.91251
8.7151	7.9055
8.6281	7.59959
8.5428	7.76239
8.4592	7.76677
8.3772	7.97412
8.2967	8.49507
8.2179	8.66128
8.1404	8.30314
8.0645	8.37484
7.9899	8.51417
7.9167	8.75801
7.8449	8.96032
7.7743	8.94845
7.705	8.93087
7.6369	9.16426
7.57	9.28178
7.5043	9.66973
7.4397	10.0647
7.3762	10.7069
7.3138	11.2601
7.2524	12.3938
7.1921	14.2861
7.1327	17.2552
7.0743	21.8565
7.0169	25.3099
6.9604	26.0743
6.9047	26.5182
6.85	27.7389
6.7962	29.4254
6.7431	31.0349
6.6909	33.9381
6.6395	38.2798
6.5889	40.5193
6.539	42.2282
6.49	44.0656
6.4416	38.1667
6.3939	28.7987
6.347	18.2145
6.3007	8.22707
6.2551	4.67148
6.2101	2.83119
6.1658	2.10835
6.1222	1.67498
6.0791	1.6272
6.0366	1.5887
5.9948	1.77699
5.9535	1.92337
5.9127	1.97873
5.8726	2.03782
5.8329	2.30941
5.7938	2.19114
5.7552	2.34629
5.7172	2.54806
5.6796	2.66113
5.6425	2.83702
5.6059	2.64946
5.5698	2.22967
5.5341	2.49923
5.4989	2.6456
5.4641	3.29169
5.4298	4.3795
5.3959	5.4338
5.3624	6.29949
5.3294	6.92852
5.2967	7.6017
5.2644	8.76669
5.2326	9.92023
5.2011	10.8515
5.17	11.7247
5.1392	12.2424
5.1088	11.7579
5.0788	12.1456
5.0491	12.7388
5.0198	13.8197
4.9908	14.1267
4.9622	14.6365
4.9338	14.8319
4.9058	15.3048
4.8781	15.6955
4.8508	15.9469
4.8237	16.0578
4.7969	15.997
4.7704	15.9429
4.7443	15.1517
4.7184	13.1431
4.6927	10.4613
4.6674	9.41754
4.6423	9.33028
4.6175	10.2095
4.593	11.2389
4.5687	12.3656
4.5447	13.0581
4.5209	13.8036
4.4974	14.9185
4.4741	15.5407
4.451	15.2718
4.4282	15.9321
4.4057	17.3604
4.3833	18.7867
4.3612	19.1507
4.3393	17.5646
4.3176	16.3334
4.2962	15.6421
4.2749	14.9706
4.2539	16.6013
4.233	15.0911
4.2124	16.7606
4.192	18.0289
4.1717	17.3939
4.1517	16.1857
4.1319	15.5997
4.1122	14.3849
4.0927	13.2268
4.0734	11.6734
4.0543	10.1062
4.0354	7.72046
4.0166	6.11865
3.9981	4.78304
3.9796	4.14409
3.9614	4.11805
3.9433	4.32279
3.9254	4.54628
3.9077	4.70273
3.8901	5.02311
3.8726	5.21154
3.8554	5.61161
3.8382	6.10042
3.8213	6.04622
3.8045	6.35777
3.7878	7.91417
3.7713	9.5996
3.7549	12.3767
3.7386	15.8363
3.7225	17.4653
3.7066	18.5779
3.6907	19.5508
3.675	20.1227
3.6595	20.1431
3.644	20.0594
3.6287	19.6753
3.6136	18.8487
3.5985	18.1385
3.5836	16.3246
3.5688	14.5653
3.5541	13.2298
3.5396	11.8091
3.5251	9.14301
3.5108	6.98919
3.4966	5.61787
3.4825	4.88892
3.4685	5.03783
3.4547	5.26481
3.4409	5.61845
3.4273	5.88284
3.4137	6.15921
3.4003	6.12995
3.387	6.13277
3.3738	6.30435
3.3606	6.08808
3.3476	5.53939
3.3347	7.06771
3.3219	7.36528
3.3092	7.29564
3.2965	9.40477
3.284	10.907
3.2716	11.8454
3.2593	11.9142
3.247	12.3592
3.2348	12.0728
3.2228	12.1901
3.2108	11.9522
3.1989	11.6412
3.1871	11.0699
3.1754	10.5745
3.1638	10.6147
3.1523	10.2528
3.1408	9.75947
3.1294	9.72025
3.1181	9.51902
3.1069	9.18002
3.0958	8.9958
3.0848	8.88624
3.0738	9.10961
3.0629	8.83988
3.0521	9.19474
3.0413	8.49348
3.0307	8.88172
3.0201	8.90227
3.0096	7.97265
2.9991	8.41883
2.9887	8.31244
2.9784	7.77915
2.9682	8.62135
2.9581	7.78971
2.948	7.48173
2.9379	8.04264
2.928	7.93241
2.9181	7.69464
2.9083	8.14322
2.8985	7.88252
2.8888	8.57123
2.8792	8.62329
2.8697	8.79084
2.8602	9.15912
2.8507	8.96303
2.8413	9.03467
2.832	9.39745
2.8228	9.90387
2.8136	10.179
2.8045	10.5086
2.7954	10.0311
2.7864	9.98607
2.7774	10.6362
2.7685	9.82371
2.7597	9.29731
2.7509	10.9992
2.7422	12.7902
2.7335	13.6838
2.7249	17.1905
2.7163	20.8425
2.7078	24.3162
2.6994	27.6718
2.691	31.0959
2.6826	33.2606
2.6743	35.2552
2.666	37.7569
2.6578	37.9871
2.6497	38.8929
2.6416	39.6858
2.6336	40.3149
2.6256	40.5711
2.6176	41.3108
2.6097	40.9426
2.6018	40.9191
2.594	41.0505
2.5863	40.1019
2.5785	39.1589
2.5709	38.4297
2.5633	36.5649
2.5557	33.794
2.5481	29.405
2.5406	26.6734
2.5332	25.7314
2.5258	25.3248
2.5184	25.792
2.5111	26.8648
2.5038	26.8187
2.4966	27.6558
2.4894	29.2772
2.4823	29.5999
2.4752	31.1525
2.4681	32.7578
2.4611	33.785
2.4541	35.3947
2.4471	36.5255
2.4402	38.3198
2.4333	39.5138
2.4265	40.2709
2.4197	42.1811
2.413	43.1939
2.4063	43.5828
2.3996	43.8674
2.3929	44.2135
2.3863	45.1632
2.3798	44.9897
2.3732	44.0417
2.3667	43.0073
2.3603	41.1287
2.3538	38.1932
2.3474	36.0586
2.3411	34.7431
2.3347	32.9877
2.3285	34.1684
2.3222	34.6371
2.316	35.2851
2.3098	36.2737
2.3036	36.7799
2.2975	37.4323
2.2914	38.3774
2.2854	39.1889
2.2793	40.0563
2.2733	41.0468
2.2674	42.0009
2.2614	43.1708
2.2555	44.1154
2.2497	45.2319
2.2438	46.1173
2.238	45.9772
2.2322	47.0212
2.2265	47.1331
2.2208	47.7834
2.2151	47.8789
2.2094	47.147
2.2038	48.1293
2.1982	49.2126
2.1926	49.5466
2.187	49.9636
2.1815	49.487
2.176	50.0481
2.1706	49.7238
2.1651	49.9095
2.1597	49.553
2.1543	50.1672
2.149	49.5678
2.1436	50.1625
2.1383	49.829
2.1331	50.0226
2.1278	50.827
2.1226	51.2723
2.1174	49.6304
2.1122	50.5624
2.1071	50.7633
2.1019	51.831
2.0968	49.8172
2.0918	50.5318
2.0867	50.5093
2.0817	49.5893
2.0767	51.0172
2.0717	50.1267
2.0667	51.241
2.0618	50.1133
2.0569	48.6439
2.052	49.4376
2.0472	49.5652
2.0423	50.0284
2.0375	50.0223
2.0327	50.0933
2.028	49.6383
2.0232	48.2249
2.0185	49.7929
2.0138	46.3801
2.0091	45.3982
2.0044	47.1205
1.9998	47.3091
