Name: Tincalconite Na_2B_4O_5(OH)_4.3H_2O
Type: Mineral
Class: Borates
Particle Size: 0-45um
Sample No.: B-4A
Owner: JPL
Wavelength Range: VNIR-SWIR
Origin: USA, California, Kern County, Boron
Measurement: Hemispherical reflectance
X Units: Wavelength (micrometers)
Y Units: Reflectance (percent)
wavelength	value
0.4	88.74
0.403	88.98
0.406	89.15
0.409	89.62
0.412	89.45
0.415	90.2
0.418	90.26
0.421	90.26
0.424	90.26
0.427	90.26
0.43	90.79
0.433	90.38
0.436	91.08
0.439	90.9
0.442	91.26
0.445	91.43
0.448	91.2
0.451	91.95
0.454	91.78
0.457	92.2
0.46	92.21
0.463	92.39
0.466	92.33
0.469	92.05
0.472	92.63
0.475	92.35
0.478	92.76
0.481	92.65
0.484	92.83
0.487	93.13
0.49	92.67
0.493	93.26
0.496	93.26
0.499	93.33
0.502	93.85
0.505	93.45
0.508	93.73
0.511	93.51
0.514	94.08
0.517	94.03
0.52	93.97
0.523	94.2
0.526	94.03
0.529	94.44
0.532	94.44
0.535	94.38
0.538	94.44
0.541	94.26
0.544	94.61
0.547	94.79
0.55	94.79
0.553	94.73
0.556	94.32
0.559	94.5
0.562	95.08
0.565	94.96
0.568	95.26
0.571	95.31
0.574	94.96
0.577	95.02
0.58	95.26
0.583	94.96
0.586	95.42
0.589	94.91
0.592	94.91
0.595	95.2
0.598	95.2
0.601	95.54
0.604	95.66
0.607	95.6
0.61	95.95
0.613	96.07
0.616	96.42
0.619	96.01
0.622	96.19
0.625	96.42
0.628	96.01
0.631	96.13
0.634	96.01
0.637	95.89
0.64	96.48
0.643	96.19
0.646	96.13
0.649	96.42
0.652	95.95
0.655	96.42
0.658	96.42
0.661	96.48
0.664	96.54
0.667	96.13
0.67	96.6
0.673	96.66
0.676	96.66
0.679	96.6
0.682	96.3
0.685	96.36
0.688	96.83
0.691	96.66
0.694	96.94
0.697	96.48
0.7	96.77
0.703	96.6
0.706	96.48
0.709	97
0.712	96.94
0.715	96.36
0.718	97.06
0.721	96.6
0.724	96.66
0.727	96.89
0.73	96.48
0.733	96.83
0.736	96.83
0.739	96.54
0.742	96.83
0.745	96.48
0.748	96.83
0.751	96.36
0.754	96.48
0.757	96.36
0.76	96.19
0.763	96.83
0.766	96.25
0.769	96.66
0.772	96.54
0.775	96.48
0.778	96.6
0.781	96.42
0.784	96.66
0.787	96.42
0.79	96.54
0.793	96.54
0.796	96.25
0.799	95.72
0.808	95.78
0.82	95.6
0.832	95.6
0.844	95.6
0.856	95.66
0.868	95.66
0.88	95.6
0.892	95.6
0.904	95.54
0.916	95.48
0.928	95.2
0.94	95.2
0.952	95.08
0.964	94.32
0.976	93.85
0.988	94.2
1	94.2
1.012	94.32
1.024	94.67
1.036	94.91
1.048	94.96
1.06	95.14
1.072	95.08
1.084	95.14
1.096	94.91
1.108	94.79
1.12	94.55
1.132	94.38
1.144	93.39
1.156	91.4
1.168	91.42
1.18	91.29
1.192	91.33
1.204	91.37
1.216	91.14
1.228	90.96
1.24	90.9
1.252	90.67
1.264	90.52
1.276	90.45
1.288	90.42
1.3	90.81
1.312	90.5
1.324	89.89
1.336	88.77
1.348	87.53
1.36	86.36
1.372	85.2
1.384	83.51
1.396	80.54
1.408	75.85
1.42	70.16
1.432	70.12
1.444	69.61
1.456	67.99
1.468	66.36
1.48	65.84
1.492	67.06
1.504	68.75
1.516	69.21
1.528	68.69
1.54	67.75
1.552	67.3
1.564	67.24
1.576	67.47
1.588	67.47
1.6	67.18
1.612	66.76
1.624	66.21
1.636	65.61
1.648	64.84
1.66	64.24
1.672	63.6
1.684	63.34
1.696	62.92
1.708	62.8
1.72	62.8
1.732	62.86
1.744	62.86
1.756	62.33
1.768	61.76
1.78	61.11
1.792	60.48
1.804	59.94
1.816	59.29
1.828	58.89
1.84	58.43
1.852	57.63
1.864	56.22
1.876	53.61
1.888	49.08
1.9	42.71
1.912	38.37
1.924	36.86
1.936	37.31
1.948	38.68
1.96	40.04
1.972	40.77
1.984	41.43
1.996	42.03
2.008	42.7
2.02	43.16
2.032	43.69
2.044	44.25
2.056	44.68
2.068	45.08
2.08	45.19
2.092	45.31
2.104	45.59
2.116	45.82
2.128	45.44
2.14	44.3
2.152	43.79
2.164	44.49
2.176	45.56
2.188	46.04
2.2	46.04
2.212	45.53
2.224	45.22
2.236	44.85
2.248	44.66
2.26	44.55
2.272	44.66
2.284	44.72
2.296	44.7
2.308	44.63
2.32	44.74
2.332	44.63
2.344	44.37
2.356	43.63
2.368	42.61
2.38	41.25
2.392	39.57
2.404	37.87
2.416	36.28
2.428	35.09
2.44	34.18
2.452	33.39
2.464	32.3
2.476	30.94
2.488	29.57
2.5	28.05
