Name: Nepheline-Sodalite Syenite
Type: Rock
Class: Igneous
Subclass: Alkalic
Particle Size: Solid surface
Sample No.: Ward23.txt
Owner: JPL
Origin: Ward's Collection of American Rocks.  Sample locality - Near Red Hill, Carroll County, New Hampshire.
Description: A gray granular rock composed of feldspar showing twinning,
Measurement: Hemispherical reflectance
X Units: Wavelength (micrometers)
Y Units: Reflectance (percent)
wavelength	value
15.3871	5.51088
15.118	4.09282
14.8581	3.46164
14.6069	3.95812
14.3642	4.54955
14.1293	4.94565
13.9021	5.98789
13.682	4.96801
13.4687	5.21129
13.2621	4.4878
13.0616	4.52148
12.8672	3.7565
12.6784	3.76681
12.4951	3.51139
12.317	4.20962
12.1439	4.97007
11.9757	5.46556
11.812	5.95218
11.6527	6.5119
11.4977	6.90031
11.3468	7.55631
11.1997	7.84667
11.0564	8.48959
10.9168	9.63555
10.7806	10.33
10.6478	11.6222
10.5182	12.8575
10.3917	15.0319
10.2683	18.0944
10.1477	20.6665
10.0299	21.8346
9.9148	24.8445
9.8024	23.5471
9.6925	25.0744
9.585	26.5275
9.4798	23.4633
9.377	18.8884
9.2763	15.9424
9.1778	15.3721
9.0814	12.4672
8.987	10.57
8.8945	11.3231
8.8039	14.3429
8.7151	15.2344
8.6281	14.5895
8.5428	14.6155
8.4592	14.0361
8.3772	12.6322
8.2967	9.75763
8.2179	6.64761
8.1404	3.72684
8.0645	2.02467
7.9899	1.09427
7.9167	0.68581
7.8449	0.72772
7.7743	0.72284
7.705	0.73316
7.6369	0.67767
7.57	0.84248
7.5043	0.91487
7.4397	1.03739
7.3762	1.14507
7.3138	1.04277
7.2524	1.21203
7.1921	1.29097
7.1327	1.55559
7.0743	1.43856
7.0169	1.57102
6.9604	1.62117
6.9047	1.67187
6.85	1.69399
6.7962	1.65589
6.7431	1.8219
6.6909	1.89542
6.6395	1.9584
6.5889	2.04904
6.539	2.02543
6.49	2.1376
6.4416	2.15205
6.3939	2.08178
6.347	2.16021
6.3007	2.10867
6.2551	2.32011
6.2101	2.18112
6.1658	2.23124
6.1222	2.27929
6.0791	2.17699
6.0366	2.34007
5.9948	2.26948
5.9535	2.40358
5.9127	2.46231
5.8726	2.51979
5.8329	2.64808
5.7938	2.38411
5.7552	2.47425
5.7172	2.50123
5.6796	2.52419
5.6425	2.63507
5.6059	2.72965
5.5698	2.74584
5.5341	2.8299
5.4989	2.91281
5.4641	2.99468
5.4298	2.97964
5.3959	3.1074
5.3624	3.19532
5.3294	3.24715
5.2967	3.23433
5.2644	3.36246
5.2326	3.41037
5.2011	3.49568
5.17	3.55482
5.1392	3.71559
5.1088	3.78247
5.0788	3.88599
5.0491	4.00489
5.0198	3.98742
4.9908	4.0564
4.9622	4.2128
4.9338	4.2631
4.9058	4.23244
4.8781	4.17085
4.8508	4.44071
4.8237	4.49134
4.7969	4.4319
4.7704	4.5167
4.7443	4.48883
4.7184	4.65593
4.6927	4.85305
4.6674	4.87806
4.6423	5.0524
4.6175	5.18944
4.593	5.42457
4.5687	5.61361
4.5447	5.74459
4.5209	5.88871
4.4974	6.17813
4.4741	6.37173
4.451	6.51652
4.4282	6.78594
4.4057	6.93284
4.3833	7.16941
4.3612	7.48705
4.3393	7.76301
4.3176	7.89814
4.2962	8.07101
4.2749	8.05508
4.2539	8.4132
4.233	8.67562
4.2124	9.16389
4.192	9.33583
4.1717	9.46493
4.1517	9.65769
4.1319	9.74448
4.1122	9.69732
4.0927	9.98835
4.0734	9.97152
4.0543	10.0065
4.0354	10.0771
4.0166	10.1467
3.9981	10.1495
3.9796	10.1304
3.9614	10.1007
3.9433	10.2339
3.9254	10.4113
3.9077	10.5643
3.8901	10.3732
3.8726	10.4895
3.8554	10.5173
3.8382	10.6549
3.8213	10.5767
3.8045	10.5777
3.7878	10.6241
3.7713	10.4717
3.7549	10.5486
3.7386	10.7244
3.7225	10.4224
3.7066	10.3437
3.6907	10.2315
3.675	10.1375
3.6595	10.0393
3.644	9.97993
3.6287	9.85672
3.6136	9.78907
3.5985	9.31863
3.5836	9.26958
3.5688	9.16337
3.5541	9.0064
3.5396	8.81947
3.5251	8.59996
3.5108	8.42734
3.4966	7.80857
3.4825	7.97355
3.4685	7.95929
3.4547	7.92106
3.4409	7.46401
3.4273	7.32139
3.4137	7.02988
3.4003	7.1278
3.387	7.18673
3.3738	6.67331
3.3606	6.75323
3.3476	6.71424
3.3347	6.7662
3.3219	6.60428
3.3092	6.50976
3.2965	6.39439
3.284	6.46973
3.2716	6.21974
3.2593	5.99114
3.247	6.10773
3.2348	5.86921
3.2228	5.85564
3.2108	5.61389
3.1989	5.72612
3.1871	5.16227
3.1754	5.47
3.1638	5.05176
3.1523	5.16957
3.1408	5.09713
3.1294	4.89269
3.1181	4.79652
3.1069	5.1151
3.0958	4.82611
3.0848	4.87427
3.0738	4.64255
3.0629	5.06034
3.0521	4.56001
3.0413	4.39882
3.0307	4.54263
3.0201	4.66696
3.0096	4.19117
2.9991	4.05687
2.9887	4.56186
2.9784	4.4842
2.9682	4.37017
2.9581	3.98639
2.948	4.47786
2.9379	4.17413
2.928	4.52286
2.9181	5.24765
2.9083	4.78842
2.8985	4.21984
2.8888	4.51293
2.8792	4.60798
2.8697	4.27698
2.8602	4.4867
2.8507	4.56312
2.8413	4.45666
2.832	4.7357
2.8228	4.42648
2.8136	4.55405
2.8045	5.10404
2.7954	4.08696
2.7864	5.23217
2.7774	4.99229
2.7685	5.28635
2.7597	5.52608
2.7509	5.57619
2.7422	6.6956
2.7335	7.13446
2.7249	8.23236
2.7163	8.91215
2.7078	10.0399
2.6994	11.1512
2.691	12.4014
2.6826	13.4809
2.6743	14.5966
2.666	15.0407
2.6578	15.0428
2.6497	15.3914
2.6416	15.3211
2.6336	15.6652
2.6256	15.7523
2.6176	16.2799
2.6097	16.097
2.6018	16.5982
2.594	16.3773
2.5863	16.2338
2.5785	16.1411
2.5709	16.1959
2.5633	16.5927
2.5557	15.7232
2.5481	15.7929
2.5406	15.3987
2.5332	15.4039
2.5258	15.8445
2.5184	16.0903
2.5111	15.8877
2.5038	15.619
2.4966	16.0034
2.4894	16.1445
2.4823	16.2168
2.4752	16.4081
2.4681	16.6215
2.4611	16.7011
2.4541	16.6671
2.4471	17.1338
2.4402	17.5204
2.4333	17.2095
2.4265	17.0704
2.4197	17.9108
2.413	17.7123
2.4063	17.6242
2.3996	18.1358
2.3929	18.0269
2.3863	18.0327
2.3798	17.4161
2.3732	17.9521
2.3667	18.264
2.3603	18.1397
2.3538	18.6912
2.3474	18.1332
2.3411	17.9275
2.3347	18.7295
2.3285	18.2813
2.3222	18.3136
2.316	19.6429
2.3098	18.9779
2.3036	18.7277
2.2975	19.2755
2.2914	18.8465
2.2854	18.8035
2.2793	19.4763
2.2733	19.4901
2.2674	19.3122
2.2614	19.4461
2.2555	19.3898
2.2497	18.3306
2.2438	19.3995
2.238	18.6437
2.2322	18.9724
2.2265	19.0163
2.2208	18.1504
2.2151	19.1631
2.2094	18.88
2.2038	17.8493
2.1982	18.9135
2.1926	18.7992
2.187	18.2218
2.1815	18.3693
2.176	18.8099
2.1706	18.3179
2.1651	19.2676
2.1597	19.6892
2.1543	19.3271
2.149	19.326
2.1436	18.5233
2.1383	19.722
2.1331	18.9103
2.1278	19.4619
2.1226	18.2643
2.1174	18.5295
2.1122	19.6532
2.1071	20.197
2.1019	19.5341
2.0968	19.3491
2.0918	19.0259
2.0867	19.8485
2.0817	19.5273
2.0767	19.7355
2.0717	19.4502
2.0667	17.5139
2.0618	18.5592
2.0569	18.9854
2.052	20.0143
2.0472	19.2771
2.0423	18.142
2.0375	19.5424
2.0327	19.1455
2.028	18.8601
2.0232	20.76
2.0185	17.9261
2.0138	18.6793
2.0091	18.1285
2.0044	20.4042
1.9998	18.5487
