Name: Oligoclase (Feldspar) (NaSi,CaAl)AlSi_2O_8
Type: Mineral
Class: Silicates
Subclass: Tectosilicates
Particle Size: 125-500um
Sample No.: TS-3A
Owner: JPL
Wavelength Range: VNIR-SWIR
Measurement: Hemispherical reflectance
X Units: Wavelength (micrometers)
Y Units: Reflectance (percent)
wavelength	value
0.4	62.06
0.403	62.27
0.406	62.37
0.409	62.69
0.412	62.93
0.415	62.99
0.418	62.89
0.421	63.14
0.424	63.28
0.427	63.32
0.43	63.34
0.433	63.6
0.436	63.72
0.439	63.86
0.442	63.98
0.445	63.96
0.448	64.18
0.451	64.5
0.454	64.68
0.457	64.78
0.46	64.97
0.463	65.24
0.466	65.14
0.469	65.29
0.472	65.55
0.475	65.55
0.478	65.66
0.481	65.6
0.484	65.85
0.487	65.94
0.49	65.7
0.493	65.95
0.496	65.86
0.499	66.08
0.502	66.11
0.505	66.05
0.508	65.85
0.511	66.04
0.514	65.98
0.517	66.09
0.52	65.78
0.523	65.95
0.526	65.84
0.529	65.84
0.532	65.65
0.535	65.76
0.538	65.75
0.541	65.9
0.544	65.73
0.547	65.96
0.55	66.05
0.553	66.2
0.556	66.29
0.559	66.52
0.562	66.83
0.565	67
0.568	66.99
0.571	67
0.574	66.91
0.577	66.85
0.58	66.99
0.583	67.1
0.586	67.24
0.589	67.27
0.592	67.1
0.595	67.21
0.598	67.34
0.601	67.57
0.604	67.58
0.607	67.57
0.61	67.66
0.613	67.69
0.616	67.61
0.619	67.45
0.622	67.67
0.625	67.67
0.628	67.73
0.631	67.66
0.634	67.54
0.637	67.6
0.64	67.68
0.643	67.76
0.646	67.73
0.649	67.71
0.652	67.83
0.655	67.87
0.658	67.86
0.661	67.68
0.664	67.81
0.667	67.82
0.67	67.83
0.673	67.81
0.676	67.74
0.679	67.95
0.682	67.9
0.685	67.92
0.688	67.77
0.691	67.75
0.694	67.85
0.697	67.93
0.7	67.94
0.703	68.02
0.706	67.95
0.709	67.91
0.712	67.94
0.715	67.99
0.718	68.01
0.721	67.95
0.724	67.93
0.727	67.91
0.73	68.08
0.733	68.07
0.736	68.01
0.739	68.04
0.742	68.09
0.745	68.06
0.748	68.01
0.751	68.02
0.754	67.91
0.757	68
0.76	67.97
0.763	67.86
0.766	67.91
0.769	67.81
0.772	67.96
0.775	67.8
0.778	67.81
0.781	67.81
0.784	67.95
0.787	67.99
0.79	67.92
0.793	67.95
0.796	67.95
0.799	68.16
0.808	68.07
0.82	68.13
0.832	68.13
0.844	68.17
0.856	68.26
0.868	68.33
0.88	68.28
0.892	68.31
0.904	68.23
0.916	68.29
0.928	68.19
0.94	68.22
0.952	68.11
0.964	68.08
0.976	67.9
0.988	67.88
1	67.78
1.012	67.64
1.024	67.57
1.036	67.48
1.048	67.4
1.06	67.26
1.072	67.1
1.084	67
1.096	66.99
1.108	66.88
1.12	66.77
1.132	66.67
1.144	66.54
1.156	66.53
1.168	66.31
1.18	66.25
1.192	66.22
1.204	66.22
1.216	66.23
1.228	66.13
1.24	66.2
1.252	66.28
1.264	66.3
1.276	66.34
1.288	66.38
1.3	66.42
1.312	66.45
1.324	66.46
1.336	66.46
1.348	66.49
1.36	66.6
1.372	66.48
1.384	66.06
1.396	64.38
1.408	63.56
1.42	64.56
1.432	64.83
1.444	65.08
1.456	65.21
1.468	65.42
1.48	65.84
1.492	66.34
1.504	66.57
1.516	66.89
1.528	67.11
1.54	67.37
1.552	67.53
1.564	67.61
1.576	67.71
1.588	68.03
1.6	68.2
1.612	68.31
1.624	68.32
1.636	68.43
1.648	68.48
1.66	68.56
1.672	68.69
1.684	68.65
1.696	68.81
1.708	68.78
1.72	68.81
1.732	68.77
1.744	68.72
1.756	68.71
1.768	68.56
1.78	68.56
1.792	68.61
1.804	68.67
1.816	68.61
1.828	68.56
1.84	68.46
1.852	68.37
1.864	67.94
1.876	66.56
1.888	64.41
1.9	61.65
1.912	59.66
1.924	58.87
1.936	58.88
1.948	59.33
1.96	59.96
1.972	60.91
1.984	61.98
1.996	63.12
2.008	64.12
2.02	65.1
2.032	65.68
2.044	66.23
2.056	66.74
2.068	67.15
2.08	67.46
2.092	67.62
2.104	67.91
2.116	68.06
2.128	68.23
2.14	68.15
2.152	67.74
2.164	67.1
2.176	65.78
2.188	64.65
2.2	64.76
2.212	65.65
2.224	66.51
2.236	66.67
2.248	66.57
2.26	66.47
2.272	66.43
2.284	66.14
2.296	65.53
2.308	64.52
2.32	63.36
2.332	62.1
2.344	61.25
2.356	61.13
2.368	61.55
2.38	62.1
2.392	62.14
2.404	61.83
2.416	61.2
2.428	60.63
2.44	60.12
2.452	59.71
2.464	59.16
2.476	59.01
2.488	58.99
2.5	58.92
