Name: Calcite CaCO_3
Type: Mineral
Class: Carbonates
Particle Size: 125-500um
Sample No.: C-3D
Owner: JPL
Origin: United Kingdom, England.
Measurement: Hemispherical reflectance
X Units: Wavelength (micrometers)
Y Units: Reflectance (percent)
wavelength	value
2.5	60.7184
2.494	61.055
2.488	61.7899
2.482	63.0166
2.476	64.5524
2.47	66.3822
2.464	68.2198
2.458	70.0764
2.452	71.549
2.446	72.7998
2.44	73.8056
2.434	74.7436
2.428	75.658
2.422	76.5037
2.416	77.1402
2.41	77.7591
2.404	78.0846
2.398	78.4801
2.392	78.7386
2.386	78.8932
2.38	78.8208
2.374	78.1309
2.368	76.7398
2.362	74.6281
2.356	71.9515
2.35	69.1839
2.344	67.2676
2.338	66.4748
2.332	66.8341
2.326	68.0103
2.32	69.405
2.314	70.5409
2.308	71.3518
2.302	72.0047
2.296	72.6774
2.29	73.5241
2.284	74.6443
2.278	75.9047
2.272	77.2473
2.266	78.3693
2.26	79.407
2.254	80.1881
2.248	80.8811
2.242	81.586
2.236	82.1456
2.23	82.7349
2.224	83.1984
2.218	83.4808
2.212	83.8141
2.206	84.1524
2.2	84.6274
2.194	84.9083
2.188	85.2246
2.182	85.2439
2.176	85.2453
2.17	85.0993
2.164	85.0519
2.158	85.0126
2.152	85.1543
2.146	85.4444
2.14	85.8677
2.134	86.1028
2.128	86.0877
2.122	86.0214
2.116	85.7325
2.11	85.514
2.104	85.3761
2.098	85.265
2.092	85.3574
2.086	85.4545
2.08	85.371
2.074	85.5003
2.068	85.5039
2.062	85.4809
2.056	85.4384
2.05	85.3741
2.044	85.3082
2.038	85.2065
2.032	85.0103
2.026	84.7632
2.02	84.4211
2.014	84.0114
2.008	83.5068
2.002	82.7753
1.996	82.3438
1.99	82.326
1.984	82.4426
1.978	82.3202
1.972	82.1938
1.966	82.0901
1.96	81.9837
1.954	81.9035
1.948	81.8028
1.942	81.7137
1.936	81.6575
1.93	81.5986
1.924	81.5466
1.918	81.5565
1.912	81.6231
1.906	82.2997
1.9	83.4092
1.894	84.7631
1.888	85.5826
1.882	85.8619
1.876	86.007
1.87	86.9753
1.864	87.93
1.858	88.4519
1.852	88.8088
1.846	88.994
1.84	89.2149
1.834	89.4439
1.828	89.6356
1.822	89.8095
1.816	89.8821
1.81	90.0236
1.804	90.1219
1.798	90.1449
1.792	90.1997
1.786	90.2002
1.78	90.1938
1.774	90.1415
1.768	90.0791
1.762	89.9768
1.756	89.9151
1.75	90.0448
1.744	90.1151
1.738	90.1794
1.732	90.193
1.726	90.2397
1.72	90.3505
1.714	90.3889
1.708	90.521
1.702	90.4198
1.696	90.5773
1.69	90.5317
1.684	90.5986
1.678	90.5399
1.672	90.6282
1.666	90.6079
1.66	90.6186
1.654	90.6249
1.648	90.6067
1.642	90.6595
1.636	90.6652
1.63	90.6737
1.624	90.6858
1.618	90.6829
1.612	90.6821
1.606	90.7052
1.6	90.683
1.594	90.6317
1.588	90.607
1.582	90.4817
1.576	90.4149
1.57	90.3042
1.564	90.2663
1.558	90.3273
1.552	90.2198
1.546	90.1792
1.54	90.1052
1.534	90.0143
1.528	89.9907
1.522	89.8545
1.516	89.8015
1.51	89.6703
1.504	89.5909
1.498	89.4982
1.492	89.3604
1.486	89.2025
1.48	89.1094
1.474	88.9869
1.468	88.8912
1.462	88.8505
1.456	88.7706
1.45	88.7053
1.444	88.7221
1.438	88.5913
1.432	88.5264
1.426	88.4142
1.42	88.3207
1.414	88.3075
1.408	88.6128
1.402	88.9928
1.396	89.4091
1.39	89.8765
1.384	90.0215
1.378	90.2631
1.372	90.4257
1.366	90.3892
1.36	90.471
1.354	90.3943
1.348	90.4256
1.342	90.3649
1.336	90.478
1.33	90.3504
1.324	90.3173
1.318	90.2675
1.312	90.2437
1.306	90.2268
1.3	90.2625
1.294	90.1438
1.288	90.2213
1.282	90.1118
1.276	90.051
1.27	90.0504
1.264	89.9746
1.258	89.8757
1.252	89.8622
1.246	89.7525
1.24	89.7914
1.234	89.6926
1.228	89.6624
1.222	89.59
1.216	89.5313
1.21	89.4075
1.204	89.3805
1.198	89.3369
1.192	89.2417
1.186	89.176
1.18	89.1084
1.174	89.081
1.168	89.0831
1.162	88.9781
1.156	88.9057
1.15	88.941
1.144	88.844
1.138	88.7844
1.132	88.7887
1.126	88.7525
1.12	88.7071
1.114	88.6434
1.108	88.61
1.102	88.5503
1.096	88.516
1.09	88.4267
1.084	88.3751
1.078	88.3269
1.072	88.3505
1.066	88.1904
1.06	88.1842
1.054	87.9973
1.048	88.0001
1.042	88.0456
1.036	88.0053
1.03	87.9437
1.024	87.8266
1.018	87.7017
1.012	87.6869
1.006	87.5998
1	87.6378
0.994	87.3779
0.988	87.3604
0.982	87.3185
0.976	87.1979
0.97	87.1082
0.964	87.0309
0.958	86.9519
0.952	86.9026
0.946	86.761
0.94	86.7222
0.934	86.6322
0.928	86.5567
0.922	86.3596
0.916	86.2797
0.91	86.1967
0.904	86.0466
0.898	85.954
0.892	85.7976
0.886	85.7229
0.88	85.6744
0.874	85.4465
0.868	85.3298
0.862	85.1211
0.856	84.9198
0.85	84.7589
0.844	84.656
0.838	84.4548
0.832	84.2707
0.826	84.1237
0.82	83.933
0.814	83.7381
0.808	83.557
0.802	83.3953
0.796	83.1245
0.79	82.9129
0.784	82.7122
0.778	82.4436
0.772	82.1572
0.766	81.9684
0.76	81.7154
0.754	81.4986
0.748	81.2726
0.742	81.0127
0.736	80.7894
0.73	80.5186
0.724	80.2752
0.718	79.9782
0.712	79.7258
0.706	79.4509
0.7	79.1814
0.694	78.8669
0.688	78.5756
0.682	78.2754
0.676	77.9655
0.67	77.6643
0.664	77.3251
0.658	77.019
0.652	76.6976
0.646	76.3625
0.64	76.0496
0.634	75.7039
0.628	75.3756
0.622	75.0344
0.616	74.708
0.61	74.3647
0.604	74.0187
0.598	73.6838
0.592	73.3662
0.586	72.9813
0.58	72.5918
0.574	72.2017
0.568	71.7878
0.562	71.3623
0.556	70.8832
0.55	70.4024
0.544	69.9238
0.538	69.4192
0.532	68.9047
0.526	68.3589
0.52	67.8103
0.514	67.2626
0.508	66.73
0.502	66.1622
0.496	65.5964
0.49	65.0696
0.484	64.5078
0.478	63.9655
0.472	63.424
0.466	62.8676
0.46	62.2745
0.454	61.6371
0.448	60.973
0.442	60.2666
0.436	59.5602
0.43	58.8043
0.424	58.0573
0.418	57.233
0.412	56.3676
0.406	55.4714
0.4	54.5408
