Name: Glauconite (K,Na)(Fe^3+,Al,Mg)_2(Si,Al)_4O_10(OH)_2
Type: Mineral
Class: Silicates
Subclass: Phyllosilicates
Particle Size: 0-45um
Sample No.: PS-19A
Owner: JPL
Wavelength Range: VNIR-SWIR
Origin: USA, New Jersey
Measurement: Hemispherical reflectance
X Units: Wavelength (micrometers)
Y Units: Reflectance (percent)
wavelength	value
0.4	11.09
0.403	11.52
0.406	11.68
0.409	12.03
0.412	12.31
0.415	12.55
0.418	12.93
0.421	13.26
0.424	13.58
0.427	13.81
0.43	14.02
0.433	14.35
0.436	14.56
0.439	14.9
0.442	15.04
0.445	15.18
0.448	15.54
0.451	15.69
0.454	16.29
0.457	16.6
0.46	16.89
0.463	17.54
0.466	17.88
0.469	18.55
0.472	19.13
0.475	19.73
0.478	20.28
0.481	20.61
0.484	21.04
0.487	21.5
0.49	21.75
0.493	22.09
0.496	22.27
0.499	22.64
0.502	23.07
0.505	23.21
0.508	23.59
0.511	23.78
0.514	24.13
0.517	24.32
0.52	24.64
0.523	24.91
0.526	25.14
0.529	25.33
0.532	25.58
0.535	25.77
0.538	25.95
0.541	25.89
0.544	26.06
0.547	26.1
0.55	26.17
0.553	26.15
0.556	26.08
0.559	26.01
0.562	26.05
0.565	25.89
0.568	25.68
0.571	25.4
0.574	25.09
0.577	24.82
0.58	24.61
0.583	24.38
0.586	24.03
0.589	23.78
0.592	23.48
0.595	23.22
0.598	22.97
0.601	22.65
0.604	22.34
0.607	22.1
0.61	21.75
0.613	21.58
0.616	21.23
0.619	20.82
0.622	20.63
0.625	20.41
0.628	20.2
0.631	19.93
0.634	19.68
0.637	19.34
0.64	19.19
0.643	19.04
0.646	18.82
0.649	18.63
0.652	18.31
0.655	18.13
0.658	18.02
0.661	17.82
0.664	17.6
0.667	17.3
0.67	17.17
0.673	16.99
0.676	16.93
0.679	16.58
0.682	16.38
0.685	16.19
0.688	16.03
0.691	15.92
0.694	15.78
0.697	15.6
0.7	15.3
0.703	15.24
0.706	15.07
0.709	15.05
0.712	14.85
0.715	14.69
0.718	14.61
0.721	14.59
0.724	14.36
0.727	14.27
0.73	14.15
0.733	14.06
0.736	14
0.739	13.99
0.742	13.82
0.745	13.85
0.748	13.84
0.751	13.69
0.754	13.76
0.757	13.72
0.76	13.72
0.763	13.73
0.766	13.64
0.769	13.81
0.772	13.71
0.775	13.73
0.778	13.73
0.781	13.77
0.784	13.93
0.787	13.84
0.79	13.99
0.793	13.99
0.796	14.1
0.799	14.22
0.808	14.76
0.82	14.96
0.832	15.05
0.844	15.08
0.856	15.03
0.868	15
0.88	14.75
0.892	14.59
0.904	14.43
0.916	14.21
0.928	14.1
0.94	14.01
0.952	13.96
0.964	13.94
0.976	13.89
0.988	13.81
1	13.8
1.012	13.71
1.024	13.67
1.036	13.55
1.048	13.57
1.06	13.51
1.072	13.56
1.084	13.5
1.096	13.6
1.108	13.64
1.12	13.77
1.132	13.91
1.144	14.01
1.156	14.21
1.168	14.49
1.18	14.72
1.192	15.06
1.204	15.44
1.216	15.7
1.228	16.1
1.24	16.42
1.252	16.79
1.264	17.14
1.276	17.71
1.288	18.09
1.3	18.56
1.312	19.09
1.324	19.66
1.336	20.07
1.348	20.6
1.36	21.05
1.372	21.56
1.384	22.12
1.396	22.54
1.408	23.09
1.42	23.6
1.432	24.2
1.444	24.75
1.456	25.52
1.468	26.16
1.48	26.74
1.492	27.43
1.504	28.26
1.516	28.78
1.528	29.39
1.54	30.13
1.552	30.81
1.564	31.53
1.576	32.2
1.588	32.83
1.6	33.48
1.612	34.16
1.624	34.93
1.636	35.56
1.648	36.25
1.66	36.83
1.672	37.55
1.684	38.3
1.696	38.85
1.708	39.52
1.72	40.16
1.732	40.79
1.744	41.39
1.756	42.01
1.768	42.67
1.78	43.29
1.792	43.93
1.804	44.57
1.816	45.12
1.828	45.63
1.84	46.26
1.852	46.66
1.864	47.08
1.876	46.98
1.888	46.14
1.9	44.94
1.912	44.99
1.924	46.01
1.936	46.96
1.948	47.73
1.96	48.48
1.972	49.29
1.984	50.15
1.996	50.92
2.008	51.74
2.02	52.42
2.032	53.12
2.044	53.76
2.056	54.26
2.068	54.73
2.08	55.25
2.092	55.72
2.104	56.21
2.116	56.58
2.128	56.74
2.14	56.88
2.152	56.95
2.164	57.03
2.176	56.93
2.188	56.81
2.2	56.63
2.212	56.38
2.224	56.01
2.236	55.39
2.248	54.9
2.26	54.81
2.272	54.63
2.284	53.43
2.296	51.56
2.308	50.89
2.32	51.98
2.332	52.77
2.344	52.5
2.356	51.83
2.368	51.9
2.38	52.65
2.392	53.55
2.404	53.87
2.416	53.78
2.428	53.14
2.44	52.58
2.452	51.86
2.464	51.2
2.476	50.75
2.488	50.51
2.5	50.52
