Name: Kaolinite Al_2Si_2O_5(OH)_4
Type: Mineral
Class: Silicates
Subclass: Phyllosilicates
Particle Size: 0-45um
Sample No.: PS-1B
Owner: JPL
Origin: USA, Georgia, Warren County
Description: Disordered kaolinite.
Measurement: Hemispherical reflectance
X Units: Wavelength (micrometers)
Y Units: Reflectance (percent)
wavelength	value
15.385	0.3732
15.116	0.2354
14.856	0.2037
14.605	0.4148
14.362	0.1456
14.128	0.0036
13.9	0.196
13.68	0.2468
13.467	0.4394
13.26	0.4913
13.06	0.607
12.866	0.6087
12.677	0.4556
12.494	0.3448
12.316	0.7246
12.143	1.4973
11.974	1.8089
11.811	2.2775
11.651	2.5836
11.496	2.28
11.345	1.9943
11.198	1.6315
11.055	1.2475
10.915	0.696
10.779	0.5068
10.647	0.4051
10.517	0.2533
10.39	0.9002
10.267	1.4157
10.146	1.7613
10.029	1.5665
9.914	1.2319
9.801	0.8152
9.691	1.486
9.584	1.7769
9.479	1.7727
9.376	1.9164
9.275	1.6505
9.177	1.2853
9.08	0.5449
8.986	0.5424
8.893	1.2824
8.803	1.4038
8.714	1.3402
8.627	0.9428
8.542	0.6507
8.458	0.4179
8.376	0.179
8.296	0.2013
8.217	0.2468
8.139	0.1867
8.063	0.3537
7.989	0.5049
7.916	0.5133
7.844	0.8037
7.773	0.9967
7.704	1.2459
7.636	1.5404
7.569	1.7286
7.503	2.1224
7.439	2.3555
7.375	2.5391
7.313	2.9743
7.252	3.5011
7.191	3.7029
7.132	4.3489
7.073	4.7126
7.016	5.3532
6.96	5.9505
6.904	6.289
6.849	6.2564
6.795	6.6391
6.742	7.112
6.69	7.6179
6.639	8.2817
6.588	8.8423
6.538	9.1814
6.489	9.684
6.441	9.7227
6.393	10.0878
6.346	10.4982
6.3	10.2872
6.254	10.6446
6.209	10.75
6.165	9.9672
6.121	9.5367
6.078	9.8183
6.036	10.0819
5.994	10.7979
5.953	11.0184
5.912	11.3786
5.872	11.4244
5.832	11.1761
5.793	10.9966
5.755	11.3894
5.716	11.667
5.679	11.7859
5.642	12.6517
5.605	13.0463
5.569	12.5808
5.533	10.8422
5.498	8.782
5.463	9.0146
5.429	10.4607
5.395	11.4207
5.362	12.7786
5.329	13.8032
5.296	14.1914
5.264	13.8434
5.232	13.0628
5.2	12.5974
5.169	12.6401
5.139	13.5278
5.108	15.0792
5.078	17.3145
5.049	19.9081
5.019	22.2772
4.99	24.0892
4.962	25.7299
4.933	26.96
4.905	27.8264
4.878	28.8994
4.85	30.2777
4.823	31.603
4.796	32.9546
4.77	34.0269
4.744	34.5236
4.718	34.6591
4.692	34.6572
4.667	35.0723
4.642	36.46
4.617	38.5469
4.592	40.4024
4.568	41.7075
4.544	42.702
4.52	42.9865
4.497	43.2113
4.474	43.9969
4.45	44.8192
4.428	45.1175
4.405	45.466
4.383	45.7523
4.361	45.9756
4.339	46.4152
4.317	46.7432
4.296	47.0544
4.274	46.168
4.253	46.6295
4.233	47.691
4.212	47.644
4.191	47.5116
4.171	47.6203
4.151	47.6472
4.131	47.855
4.112	47.9181
4.092	48.059
4.073	48.1462
4.054	48.2285
4.035	48.4096
4.016	48.5962
3.998	48.6461
3.979	48.7495
3.961	48.6725
3.943	48.7234
3.925	48.6158
3.907	48.616
3.89	48.4731
3.872	48.3512
3.855	48.0901
3.838	47.8732
3.821	47.5565
3.804	47.2118
3.787	46.7926
3.771	46.2681
3.754	45.8467
3.738	44.7794
3.722	44.1834
3.706	42.3874
3.69	41.9352
3.675	42.3999
3.659	42.4075
3.644	42.1191
3.628	41.6109
3.613	41.1169
3.598	40.4517
3.583	39.5062
3.568	38.6813
3.554	38.6458
3.539	38.2717
3.525	37.5183
3.51	36.6652
3.496	36.117
3.482	35.6182
3.468	35.054
3.454	34.4305
3.441	33.6981
3.427	32.8611
3.413	32.0811
3.4	31.8568
3.387	31.4083
3.373	31.0168
3.36	30.5271
3.347	30.0224
3.334	29.5756
3.321	28.9959
3.309	28.565
3.296	28.1105
3.284	27.552
3.271	27.1864
3.259	26.6732
3.247	26.3908
3.234	25.7975
3.222	25.532
3.21	24.9983
3.199	24.5609
3.187	24.1495
3.175	23.7889
3.163	23.4522
3.152	23.1274
3.14	22.561
3.129	22.415
3.118	21.8958
3.107	21.503
3.095	21.413
3.084	21.0374
3.073	20.887
3.063	20.5093
3.052	20.1942
3.041	19.799
3.03	19.4333
3.02	19.1603
3.009	18.6715
2.999	18.1795
2.988	17.7582
2.978	17.2863
2.968	16.8516
2.958	16.6198
2.948	16.3401
2.938	15.8598
2.928	14.9456
2.918	13.219
2.908	12.3464
2.898	13.4799
2.888	13.4164
2.879	12.9509
2.869	12.8055
2.86	12.4452
2.85	12.1115
2.841	11.7457
2.832	11.0017
2.822	10.5067
2.813	10.3101
2.804	9.393
2.795	8.33
2.786	7.2418
2.777	5.2823
2.768	2.9888
2.759	0.9404
2.751	2.0002
2.742	1.3808
2.733	1.093
2.725	1.3493
2.716	1.6061
2.707	0.8541
2.699	1.1554
2.691	4.1715
2.682	9.4548
2.674	14.784
2.666	20.0323
2.658	22.8755
2.649	25.5136
2.641	27.635
2.633	29.6914
2.625	31.5005
2.617	33.0481
2.609	33.3378
2.602	34.0199
2.594	35.3435
2.586	35.0221
2.578	35.5536
2.571	36.3505
2.563	37.6711
2.555	38.1267
2.548	38.5388
2.54	38.7408
2.533	39.3196
2.525	39.708
2.518	40.477
2.511	40.7994
2.504	41.4716
2.496	41.8183
2.489	42.1721
2.482	43.2334
2.475	44.3298
2.468	44.9538
2.461	45.4484
2.454	45.8666
2.447	46.3309
2.44	47.052
2.433	48.8897
2.426	50.499
2.419	51.5214
2.413	52.1695
2.406	52.4571
2.399	51.7495
2.393	50.6308
2.386	49.2894
2.379	49.9492
2.373	51.8099
2.366	52.7981
2.36	52.4584
2.354	52.9374
2.347	54.5235
2.341	56.2417
2.334	56.3781
2.328	55.7381
2.322	56.051
2.316	56.3354
2.309	57.3395
2.303	58.7493
2.297	59.8866
2.291	60.6906
2.285	61.5596
2.279	62.5753
2.273	63.5432
2.267	64.1956
2.261	64.6622
2.255	65.0139
2.249	65.4455
2.244	64.7629
2.238	64.3344
2.232	64.8674
2.226	64.1714
2.22	60.9081
2.215	52.4412
2.209	39.5419
2.204	47.4169
2.198	51.7035
2.192	52.5014
2.187	53.9629
2.181	54.1372
2.176	54.2726
2.17	54.3271
2.165	54.1752
2.159	54.7009
2.154	57.4108
2.149	61.6019
2.143	65.8999
2.138	69.2033
2.133	71.271
2.128	72.5101
2.122	73.3936
2.117	73.4424
2.112	73.6905
2.107	75.3867
2.102	76.2119
2.097	76.668
2.091	76.706
2.086	77.2845
2.081	77.9119
2.076	78.8864
2.071	79.0298
2.066	79.9001
2.062	80.2607
2.057	80.4813
2.052	80.8394
2.047	81.1221
2.042	81.4488
2.037	81.7046
2.032	82.3081
2.028	82.0281
2.023	82.2843
2.018	82.2923
2.014	82.5602
2.009	82.6973
2.004	82.4746
