Name: Obsidian
Type: Rock
Class: Igneous
Subclass: Felsic
Particle Size: Solid surface
Sample No.: Ward01.txt
Owner: JPL
Origin: Ward's Collection of American Rocks.  Sample locality - Lake County, Oregon.
Description: A jet black glass with conchoidal fracture.  Thin edge
Measurement: Hemispherical reflectance
X Units: Wavelength (micrometers)
Y Units: Reflectance (percent)
wavelength	value
15.387	5.0977
15.118	5.4024
14.858	5.8405
14.607	6.0914
14.364	6.0989
14.129	6.2479
13.902	6.4389
13.682	6.6763
13.469	6.5829
13.262	6.565
13.062	6.9492
12.867	6.8937
12.678	6.9771
12.495	6.3885
12.317	5.7888
12.144	5.7329
11.976	6.0571
11.812	6.368
11.653	7.3195
11.498	8.2156
11.347	8.8853
11.2	9.7117
11.056	10.4264
10.917	11.3233
10.781	12.6002
10.648	13.5857
10.518	15.0474
10.392	16.3735
10.268	18.0336
10.148	19.9352
10.03	21.8725
9.915	23.7382
9.802	25.6898
9.693	27.6622
9.585	29.8273
9.48	32.283
9.377	34.4896
9.276	36.8846
9.178	38.2319
9.081	36.8984
8.987	32.9846
8.895	28.705
8.804	25.458
8.715	23.165
8.628	21.5097
8.543	20.482
8.459	19.5269
8.377	18.571
8.297	17.5006
8.218	16.0021
8.14	13.4421
8.065	9.6553
7.99	5.1195
7.917	2.2155
7.845	0.9427
7.774	0.6142
7.705	0.188
7.637	0.1293
7.57	0.0971
7.504	0.0251
7.44	0.1502
7.376	0.2814
7.314	0.435
7.252	0.5073
7.192	0.5708
7.133	0.6508
7.074	0.6256
7.017	0.8469
6.96	0.7218
6.905	0.9685
6.85	1.2087
6.796	1.0007
6.743	1.1022
6.691	1.2511
6.64	1.426
6.589	1.5373
6.539	1.5911
6.49	1.5676
6.442	1.6964
6.394	1.6828
6.347	1.7729
6.301	1.8919
6.255	1.9774
6.21	1.9914
6.166	2.0899
6.122	2.0617
6.079	2.1078
6.037	2.0318
5.995	2.1643
5.954	2.2037
5.913	2.186
5.873	2.2015
5.833	2.2132
5.794	2.2848
5.755	2.3635
5.717	2.4121
5.68	2.4091
5.643	2.3635
5.606	2.4507
5.57	2.3429
5.534	2.4439
5.499	2.3996
5.464	2.5388
5.43	2.5981
5.396	2.5789
5.362	2.4865
5.329	2.58
5.297	2.6514
5.264	2.6259
5.233	2.6397
5.201	2.6034
5.17	2.7428
5.139	2.7976
5.109	2.7325
5.079	2.8967
5.049	2.7485
5.02	2.7944
4.991	2.8866
4.962	2.9478
4.934	2.9505
4.906	2.9975
4.878	3.0002
4.851	2.993
4.824	3.0371
4.797	3.177
4.77	3.2744
4.744	3.2489
4.718	3.1557
4.693	3.2752
4.667	3.213
4.642	3.3664
4.617	3.3522
4.593	3.4848
4.569	3.4851
4.545	3.4371
4.521	3.4957
4.497	3.3899
4.474	3.4148
4.451	3.5777
4.428	3.4072
4.406	3.5822
4.383	3.5353
4.361	3.6745
4.339	3.6605
4.318	3.5436
4.296	3.7889
4.275	3.6647
4.254	3.6964
4.233	3.7318
4.212	3.8985
4.192	3.7507
4.172	3.9326
4.152	3.9488
4.132	3.9335
4.112	4.1602
4.093	4.1593
4.073	4.1468
4.054	4.0616
4.035	4.097
4.017	4.2041
3.998	4.2429
3.98	4.0822
3.961	4.127
3.943	4.1533
3.925	4.1611
3.908	4.2041
3.89	4.058
3.873	4.1789
3.855	4.4669
3.838	4.1394
3.821	4.1719
3.805	4.1944
3.788	4.179
3.771	4.2505
3.755	4.2855
3.739	4.3569
3.723	4.1652
3.707	4.2482
3.691	4.1788
3.675	4.3758
3.66	4.1873
3.644	4.329
3.629	4.3524
3.614	4.388
3.599	4.2887
3.584	4.2022
3.569	4.3329
3.554	4.3581
3.54	4.1576
3.525	4.4379
3.511	4.1434
3.497	4.3321
3.482	4.3383
3.469	3.9286
3.455	4.5437
3.441	4.4629
3.427	4.318
3.414	4.5148
3.4	4.0627
3.387	4.0381
3.374	4.2971
3.361	4.2843
3.348	4.5437
3.335	4.0232
3.322	4.2547
3.309	4.3372
3.297	4.2986
3.284	4.127
3.272	4.2233
3.259	3.9665
3.247	3.9203
3.235	4.2726
3.223	4.2319
3.211	4.3341
3.199	3.8934
3.187	4.2591
3.175	4.0098
3.164	4.3011
3.152	4.0291
3.141	4.086
3.129	4.206
3.118	4.2795
3.107	3.7101
3.096	3.5676
3.085	4.2983
3.074	3.7463
3.063	4.1911
3.052	3.6338
3.041	4.0394
3.031	4.2076
3.02	4.2762
3.01	4.3946
2.999	3.8618
2.989	4.1052
2.978	3.8873
2.968	4.1819
2.958	4.0783
2.948	3.947
2.938	4.3169
2.928	4.2428
2.918	4.146
2.908	4.3962
2.898	3.8988
2.889	3.7682
2.879	4.283
2.87	4.5023
2.86	3.7342
2.851	3.8434
2.841	4.0614
2.832	3.9224
2.823	3.9496
2.814	3.9067
2.805	4.2069
2.795	3.4876
2.786	3.9106
2.777	3.6635
2.769	3.9018
2.76	3.8831
2.751	4.2245
2.742	4.3055
2.733	3.5775
2.725	3.7508
2.716	4.1886
2.708	4.2215
2.699	4.3371
2.691	4.101
2.683	4.6884
2.674	4.9642
2.666	5.1462
2.658	4.6172
2.65	4.632
2.642	4.5894
2.634	5.2846
2.626	4.6916
2.618	4.0209
2.61	4.0737
2.602	4.9349
2.594	4.6691
2.586	4.9804
2.579	4.6871
2.571	4.8826
2.563	3.7305
2.556	4.7912
2.548	4.6143
2.541	4.5233
2.533	4.3838
2.526	4.7877
2.518	4.6322
2.511	4.9881
2.504	4.5485
2.497	3.994
2.489	5.096
2.482	4.4446
2.475	4.7538
2.468	4.8906
2.461	4.3316
2.454	4.7033
2.447	5.0441
2.44	4.5171
2.433	5.171
2.426	4.7504
2.42	4.4722
2.413	5.4821
2.406	4.6935
2.4	4.3537
2.393	4.7246
2.386	4.9448
2.38	5.0231
2.373	5.5974
2.367	5.2685
2.36	4.5691
2.354	3.9299
2.347	4.7508
2.341	4.929
2.335	4.9847
2.329	4.8905
2.322	5.2973
2.316	4.7547
2.31	4.0512
2.304	4.8044
2.297	4.0972
2.291	4.0728
2.285	5.4232
2.279	5.4856
2.273	5.1504
2.267	4.9364
2.261	3.9412
2.256	4.5387
2.25	4.6275
2.244	4.4228
2.238	4.2411
2.232	4.4148
2.227	5.6201
2.221	4.9217
2.215	5.1503
2.209	4.0879
2.204	4.4248
2.198	4.586
2.193	4.6381
2.187	4.8886
2.182	4.9806
2.176	4.1385
2.171	5.5983
2.165	4.1751
2.16	4.5217
2.154	5.2861
2.149	4.1178
2.144	5.1425
2.138	3.3121
2.133	4.1411
2.128	5.06
2.123	4.5258
2.117	6.0146
2.112	5.2803
2.107	4.2605
2.102	5.6787
2.097	4.3974
2.092	5.1025
2.087	4.7801
2.082	5.4643
2.077	4.0358
2.072	5.5579
2.067	4.6723
2.062	5.424
2.057	4.492
2.052	2.9844
2.047	3.6509
2.042	4.2087
2.038	4.5085
2.033	5.138
2.028	3.3537
2.023	4.4277
2.019	3.7568
2.014	4.7252
2.009	6.8642
2.004	3.6468
2	3.3856
