Name: Scorodite Fe^3+AsO_4.2H_2O
Type: Mineral
Class: Arsenates
Particle Size: 45-125um
Sample No.: A-2A
Owner: JPL
Origin: USA, Utah, Tooele County, Gold Hill.
Measurement: Hemispherical reflectance
X Units: Wavelength (micrometers)
Y Units: Reflectance (percent)
wavelength	value
2.5	7.43253
2.494	7.96243
2.488	8.84855
2.482	9.56703
2.476	10.2398
2.47	10.9457
2.464	11.6845
2.458	12.1938
2.452	12.6836
2.446	13.2044
2.44	13.6336
2.434	13.9945
2.428	14.4029
2.422	14.8526
2.416	15.3266
2.41	15.6949
2.404	16.0942
2.398	16.4616
2.392	16.806
2.386	17.1342
2.38	17.4662
2.374	17.7089
2.368	17.987
2.362	18.174
2.356	18.1501
2.35	18.1726
2.344	18.0359
2.338	17.8024
2.332	17.8092
2.326	17.8862
2.32	18.1228
2.314	18.5812
2.308	19.2152
2.302	19.8144
2.296	20.3768
2.29	20.8161
2.284	21.133
2.278	21.2556
2.272	21.321
2.266	21.3231
2.26	21.4248
2.254	21.4265
2.248	21.342
2.242	21.2342
2.236	21.0182
2.23	20.7314
2.224	20.3929
2.218	20.2079
2.212	20.0774
2.206	19.5966
2.2	19.4453
2.194	19.0944
2.188	18.7881
2.182	18.5615
2.176	18.3172
2.17	18.1232
2.164	17.8569
2.158	17.7286
2.152	17.5835
2.146	17.3045
2.14	17.0653
2.134	16.8707
2.128	16.616
2.122	16.3803
2.116	16.2533
2.11	16.0079
2.104	15.8634
2.098	15.7384
2.092	15.8149
2.086	15.7775
2.08	15.8671
2.074	15.8894
2.068	15.9044
2.062	15.954
2.056	16.046
2.05	16.1551
2.044	16.2539
2.038	16.2972
2.032	16.2839
2.026	16.2029
2.02	15.8582
2.014	15.3357
2.008	14.6052
2.002	13.9889
1.996	13.6363
1.99	13.6795
1.984	13.6575
1.978	13.5
1.972	13.0656
1.966	12.7811
1.96	12.7815
1.954	13.5082
1.948	14.7723
1.942	16.3283
1.936	17.7566
1.93	19.0769
1.924	20.1526
1.918	21.1479
1.912	22.0308
1.906	22.7325
1.9	23.3629
1.894	23.8307
1.888	24.1116
1.882	24.4521
1.876	24.5362
1.87	24.588
1.864	24.8617
1.858	24.8389
1.852	24.9255
1.846	24.8879
1.84	24.9175
1.834	24.9115
1.828	24.959
1.822	24.972
1.816	25.0753
1.81	25.1239
1.804	25.278
1.798	25.3367
1.792	25.5229
1.786	25.6497
1.78	25.7608
1.774	25.945
1.768	26.0638
1.762	26.2254
1.756	26.3985
1.75	26.561
1.744	26.7264
1.738	27
1.732	27.127
1.726	27.3696
1.72	27.6108
1.714	27.9112
1.708	28.218
1.702	28.5941
1.696	29.063
1.69	29.5286
1.684	30.0129
1.678	30.6039
1.672	31.1669
1.666	31.8429
1.66	32.5548
1.654	33.2835
1.648	33.9649
1.642	34.8303
1.636	35.5065
1.63	36.2296
1.624	37.0811
1.618	37.9149
1.612	38.7092
1.606	39.5311
1.6	40.3391
1.594	41.1542
1.588	42.0036
1.582	42.8278
1.576	43.5975
1.57	44.4275
1.564	45.17
1.558	45.74
1.552	45.9906
1.546	45.8848
1.54	45.3184
1.534	44.8057
1.528	45.0911
1.522	45.8912
1.516	46.7256
1.51	47.1953
1.504	47.4429
1.498	47.49
1.492	47.1775
1.486	46.5764
1.48	45.6465
1.474	44.1907
1.468	41.6875
1.462	38.7409
1.456	38.069
1.45	39.9058
1.444	43.396
1.438	47.2524
1.432	50.5682
1.426	52.8723
1.42	54.9392
1.414	56.6207
1.408	58.0301
1.402	59.1519
1.396	60.0366
1.39	60.6744
1.384	60.9374
1.378	61.0353
1.372	61.1291
1.366	61.4385
1.36	61.8962
1.354	62.2967
1.348	62.6406
1.342	62.721
1.336	62.6894
1.33	62.686
1.324	62.7433
1.318	62.7311
1.312	62.724
1.306	62.6882
1.3	62.7633
1.294	62.846
1.288	62.9033
1.282	62.99
1.276	62.832
1.27	62.7673
1.264	62.6991
1.258	62.646
1.252	62.4216
1.246	62.3446
1.24	62.1713
1.234	61.9162
1.228	61.8216
1.222	61.5418
1.216	61.3093
1.21	60.9302
1.204	60.4969
1.198	60.26
1.192	60.0493
1.186	60.0033
1.18	60.0937
1.174	60.1441
1.168	60.1577
1.162	60.0941
1.156	60.0173
1.15	59.9257
1.144	59.7736
1.138	59.6382
1.132	59.4689
1.126	59.1921
1.12	59.1886
1.114	58.9693
1.108	58.7399
1.102	58.5779
1.096	58.5292
1.09	58.342
1.084	58.1528
1.078	57.9689
1.072	57.8392
1.066	57.7054
1.06	57.5032
1.054	57.2851
1.048	57.1757
1.042	56.9158
1.036	56.7647
1.03	56.5377
1.024	56.3018
1.018	55.907
1.012	55.5308
1.006	55.3019
1	54.7916
0.994	54.5027
0.988	54.3416
0.982	54.1658
0.976	54.1825
0.97	53.9009
0.964	53.6157
0.958	53.3357
0.952	52.9311
0.946	52.5134
0.94	52.1616
0.934	51.7712
0.928	51.3469
0.922	50.9623
0.916	50.5624
0.91	50.1643
0.904	49.7976
0.898	49.384
0.892	49.0124
0.886	48.62
0.88	48.2265
0.874	47.9128
0.868	47.5332
0.862	47.2008
0.856	46.5984
0.85	46.4232
0.844	46.1546
0.838	45.92
0.832	45.7239
0.826	45.6016
0.82	45.4933
0.814	45.3905
0.808	45.3665
0.802	45.3947
0.796	45.3742
0.79	45.4498
0.784	45.5669
0.778	45.7504
0.772	45.9172
0.766	46.0889
0.76	46.318
0.754	46.5631
0.748	46.8022
0.742	47.0175
0.736	47.1961
0.73	47.3291
0.724	47.3885
0.718	47.3937
0.712	47.3209
0.706	47.1409
0.7	46.8501
0.694	46.4602
0.688	45.9424
0.682	45.2882
0.676	44.5155
0.67	43.6296
0.664	42.6687
0.658	41.619
0.652	40.5266
0.646	39.4133
0.64	38.3163
0.634	37.2184
0.628	36.1821
0.622	35.2482
0.616	34.3455
0.61	33.5481
0.604	32.8312
0.598	32.2702
0.592	31.7411
0.586	31.2756
0.58	30.8799
0.574	30.5392
0.568	30.2664
0.562	30.0558
0.556	29.8573
0.55	29.7291
0.544	29.6161
0.538	29.4948
0.532	29.3164
0.526	29.0251
0.52	28.5829
0.514	27.926
0.508	26.9827
0.502	25.6963
0.496	24.0904
0.49	22.2322
0.484	20.3597
0.478	18.8986
0.472	17.8178
0.466	17.0028
0.46	16.363
0.454	15.7282
0.448	14.6461
0.442	12.529
0.436	9.09477
0.43	9.162
0.424	9.41296
0.418	9.70098
0.412	9.63846
0.406	9.41679
0.4	8.93118
