Name: Anthophyllite (Mg,Fe^2+)_7Si_8O_22(OH)_2
Type: Mineral
Class: Silicates
Subclass: Inosilicates
Particle Size: 45-125um
Sample No.: IN-8A
Owner: JPL
Wavelength Range: VNIR-SWIR
Origin: USA, North Carolina
Measurement: Hemispherical reflectance
X Units: Wavelength (micrometers)
Y Units: Reflectance (percent)
wavelength	value
0.4	51.02
0.403	51.61
0.406	52.07
0.409	52.37
0.412	52.51
0.415	53.07
0.418	53.38
0.421	53.74
0.424	53.96
0.427	54.22
0.43	54.38
0.433	54.87
0.436	55.23
0.439	55.52
0.442	55.62
0.445	55.87
0.448	56.02
0.451	56.28
0.454	56.56
0.457	56.85
0.46	57.02
0.463	57.18
0.466	57.4
0.469	57.76
0.472	58.22
0.475	58.48
0.478	58.58
0.481	58.73
0.484	58.96
0.487	59.15
0.49	59.2
0.493	59.26
0.496	59.44
0.499	59.72
0.502	59.92
0.505	59.99
0.508	60.25
0.511	60.22
0.514	60.26
0.517	60.39
0.52	60.43
0.523	60.54
0.526	60.51
0.529	60.51
0.532	60.51
0.535	60.51
0.538	60.56
0.541	60.7
0.544	60.52
0.547	60.53
0.55	60.66
0.553	60.89
0.556	60.87
0.559	60.92
0.562	61.21
0.565	61.33
0.568	61.23
0.571	61.32
0.574	61.02
0.577	60.95
0.58	60.87
0.583	60.76
0.586	61.02
0.589	60.96
0.592	61.04
0.595	60.92
0.598	60.92
0.601	60.93
0.604	61.21
0.607	61.04
0.61	61.13
0.613	60.81
0.616	60.81
0.619	60.83
0.622	60.79
0.625	60.66
0.628	60.5
0.631	60.64
0.634	60.71
0.637	60.6
0.64	60.58
0.643	60.58
0.646	60.45
0.649	60.52
0.652	60.54
0.655	60.65
0.658	60.43
0.661	60.25
0.664	60.45
0.667	60.56
0.67	60.47
0.673	60.45
0.676	60.3
0.679	60.35
0.682	60.47
0.685	60.36
0.688	60.23
0.691	60.08
0.694	60.05
0.697	60.16
0.7	60.08
0.703	59.74
0.706	60.02
0.709	59.82
0.712	59.75
0.715	59.63
0.718	59.48
0.721	59.44
0.724	59.47
0.727	59.52
0.73	59.31
0.733	59.12
0.736	59.13
0.739	59.19
0.742	59.08
0.745	58.86
0.748	58.78
0.751	58.61
0.754	58.39
0.757	58.57
0.76	58.46
0.763	58.08
0.766	58.01
0.769	57.88
0.772	57.9
0.775	57.67
0.778	57.62
0.781	57.43
0.784	57.19
0.787	57.29
0.79	57.03
0.793	56.84
0.796	56.6
0.799	56.51
0.808	55.88
0.82	54.9
0.832	53.79
0.844	52.63
0.856	51.71
0.868	50.56
0.88	49.44
0.892	48.58
0.904	47.6
0.916	47.07
0.928	46.59
0.94	46.14
0.952	45.99
0.964	46.14
0.976	46.47
0.988	46.83
1	47.13
1.012	47.54
1.024	47.75
1.036	48.11
1.048	48.19
1.06	48.46
1.072	48.81
1.084	49.28
1.096	49.73
1.108	50.15
1.12	50.62
1.132	51
1.144	51.43
1.156	51.65
1.168	51.93
1.18	52.23
1.192	52.4
1.204	52.6
1.216	52.82
1.228	52.97
1.24	53.29
1.252	53.43
1.264	53.62
1.276	53.98
1.288	54.3
1.3	54.57
1.312	54.97
1.324	55.32
1.336	55.75
1.348	55.98
1.36	56.41
1.372	56.47
1.384	51.27
1.396	55.33
1.408	57.62
1.42	58.11
1.432	58.53
1.444	59.04
1.456	59.35
1.468	59.75
1.48	60.08
1.492	60.36
1.504	60.68
1.516	60.96
1.528	61.11
1.54	61.37
1.552	61.61
1.564	61.7
1.576	61.9
1.588	61.96
1.6	62.11
1.612	62.25
1.624	62.29
1.636	62.44
1.648	62.41
1.66	62.51
1.672	62.5
1.684	62.56
1.696	62.54
1.708	62.52
1.72	62.52
1.732	62.5
1.744	62.29
1.756	62.23
1.768	62.13
1.78	62.19
1.792	62.13
1.804	62.02
1.816	61.96
1.828	61.68
1.84	61.67
1.852	61.45
1.864	61.38
1.876	61.17
1.888	60.86
1.9	60.62
1.912	60.38
1.924	60.16
1.936	60.06
1.948	59.82
1.96	59.65
1.972	59.44
1.984	59.39
1.996	59.31
2.008	59.24
2.02	59.19
2.032	59.24
2.044	59.06
2.056	58.78
2.068	58.36
2.08	58.11
2.092	58
2.104	57.78
2.116	57.5
2.128	57.17
2.14	57.05
2.152	56.85
2.164	56.53
2.176	56.29
2.188	56.12
2.2	55.79
2.212	55.23
2.224	54.48
2.236	53.91
2.248	52.97
2.26	50.98
2.272	47.75
2.284	43.56
2.296	40.5
2.308	40.73
2.32	44.06
2.332	48.11
2.344	49.62
2.356	49.04
2.368	47.21
2.38	45.95
2.392	46.59
2.404	48.1
2.416	48.98
2.428	48.93
2.44	48.54
2.452	48.3
2.464	48.46
2.476	48.73
2.488	49.32
2.5	49.85
