Name: Glaucophane Na_2(Mg,Fe^2+)_3Al_2Si_8O_22(OH)_2
Type: Mineral
Class: Silicates
Subclass: Inosilicates
Particle Size: 45-125um
Sample No.: IN-3A
Owner: JPL
Wavelength Range: VNIR-SWIR
Origin: USA, California
Measurement: Hemispherical reflectance
X Units: Wavelength (micrometers)
Y Units: Reflectance (percent)
wavelength	value
0.4	9.37
0.403	9.7
0.406	10.05
0.409	10.18
0.412	10.72
0.415	10.93
0.418	11.32
0.421	11.73
0.424	12
0.427	12.06
0.43	12.18
0.433	12.36
0.436	12.25
0.439	12.57
0.442	12.81
0.445	13.15
0.448	13.17
0.451	13.14
0.454	13.29
0.457	13.55
0.46	13.67
0.463	13.82
0.466	13.74
0.469	13.83
0.472	13.77
0.475	13.92
0.478	13.96
0.481	14.07
0.484	14.12
0.487	14.07
0.49	14.12
0.493	14.17
0.496	14.27
0.499	14.3
0.502	14.23
0.505	14.26
0.508	14.16
0.511	14.26
0.514	14.27
0.517	14.21
0.52	14.15
0.523	14.08
0.526	14.15
0.529	14.04
0.532	14.1
0.535	14.08
0.538	14.08
0.541	13.94
0.544	13.81
0.547	13.9
0.55	13.95
0.553	14
0.556	13.9
0.559	13.84
0.562	14.06
0.565	13.9
0.568	13.75
0.571	13.83
0.574	13.77
0.577	13.74
0.58	13.7
0.583	13.76
0.586	13.48
0.589	13.47
0.592	13.45
0.595	13.46
0.598	13.47
0.601	13.54
0.604	13.45
0.607	13.3
0.61	13.3
0.613	13.26
0.616	13.31
0.619	13.3
0.622	13.34
0.625	13.12
0.628	13.07
0.631	13.1
0.634	13.2
0.637	13.09
0.64	13.26
0.643	13.01
0.646	13.01
0.649	13.09
0.652	13.19
0.655	13.14
0.658	13.33
0.661	13.15
0.664	13.19
0.667	13.23
0.67	13.33
0.673	13.42
0.676	13.56
0.679	13.45
0.682	13.45
0.685	13.59
0.688	13.69
0.691	13.79
0.694	13.9
0.697	13.86
0.7	13.86
0.703	13.96
0.706	14.09
0.709	14.21
0.712	14.42
0.715	14.44
0.718	14.46
0.721	14.56
0.724	14.72
0.727	14.85
0.73	15.05
0.733	15.1
0.736	15.2
0.739	15.29
0.742	15.44
0.745	15.56
0.748	15.8
0.751	15.76
0.754	15.88
0.757	16.15
0.76	16.04
0.763	16.12
0.766	16.3
0.769	16.31
0.772	16.4
0.775	16.4
0.778	16.48
0.781	16.47
0.784	16.59
0.787	16.65
0.79	16.61
0.793	16.62
0.796	16.84
0.799	16.79
0.808	17.02
0.82	17.21
0.832	17.21
0.844	17.34
0.856	17.49
0.868	17.79
0.88	18.17
0.892	18.36
0.904	18.85
0.916	19.11
0.928	19.43
0.94	19.79
0.952	20
0.964	20.3
0.976	20.52
0.988	20.64
1	20.92
1.012	21.24
1.024	21.55
1.036	21.88
1.048	22.27
1.06	22.8
1.072	23.3
1.084	23.99
1.096	24.62
1.108	25.22
1.12	26.06
1.132	26.89
1.144	27.53
1.156	28.47
1.168	29.2
1.18	30.01
1.192	30.88
1.204	31.65
1.216	32.39
1.228	33.3
1.24	33.95
1.252	34.65
1.264	35.4
1.276	36.08
1.288	36.69
1.3	37.43
1.312	37.94
1.324	38.65
1.336	39.17
1.348	39.69
1.36	40.26
1.372	40.69
1.384	40.57
1.396	36.66
1.408	38.23
1.42	42
1.432	42.42
1.444	42.62
1.456	42.96
1.468	43.61
1.48	44.03
1.492	44.46
1.504	44.83
1.516	45.33
1.528	45.64
1.54	45.87
1.552	46.34
1.564	46.95
1.576	47.29
1.588	47.73
1.6	48.3
1.612	48.67
1.624	48.91
1.636	49.34
1.648	49.78
1.66	50.06
1.672	50.3
1.684	50.65
1.696	50.88
1.708	51.27
1.72	51.67
1.732	51.88
1.744	52.05
1.756	52.52
1.768	52.67
1.78	52.95
1.792	53.29
1.804	53.4
1.816	53.55
1.828	53.78
1.84	53.92
1.852	54.03
1.864	54.04
1.876	53.85
1.888	53.57
1.9	53.24
1.912	52.7
1.924	52.4
1.936	52.01
1.948	52.11
1.96	52.6
1.972	53.07
1.984	53.19
1.996	53.5
2.008	53.73
2.02	54.16
2.032	54.61
2.044	55.07
2.056	55.38
2.068	55.45
2.08	55.71
2.092	55.74
2.104	55.63
2.116	55.38
2.128	55.25
2.14	54.92
2.152	54.28
2.164	53.38
2.176	52.86
2.188	52.3
2.2	51.78
2.212	50.89
2.224	49.33
2.236	46.71
2.248	44.07
2.26	42.41
2.272	40.92
2.284	38.14
2.296	34.26
2.308	31.33
2.32	30.86
2.332	32.21
2.344	34.77
2.356	37.49
2.368	39.11
2.38	39.89
2.392	40.83
2.404	42.12
2.416	43.25
2.428	43.71
2.44	43.36
2.452	42.61
2.464	41.54
2.476	40.83
2.488	40.55
2.5	40.56
