Name: Fayalite Fe_2SiO_4
Type: Mineral
Class: Silicates
Subclass: Nesosilicates
Particle Size: 0-45um
Sample No.: NS-1A
Owner: JPL
Origin: None.
Measurement: Hemispherical reflectance
X Units: Wavelength (micrometers)
Y Units: Reflectance (percent)
wavelength	value
2.5	15.8605
2.494	15.7545
2.488	15.8232
2.482	15.9231
2.476	16.007
2.47	16.142
2.464	16.133
2.458	16.1014
2.452	16.2418
2.446	16.1887
2.44	16.2509
2.434	16.3066
2.428	16.322
2.422	16.329
2.416	16.4542
2.41	16.5829
2.404	16.656
2.398	16.7308
2.392	16.7919
2.386	16.8683
2.38	16.9441
2.374	17.0105
2.368	17.0386
2.362	17.0799
2.356	16.9831
2.35	16.9438
2.344	16.9835
2.338	17.0747
2.332	17.097
2.326	17.2072
2.32	17.2773
2.314	17.3519
2.308	17.5215
2.302	17.5796
2.296	17.736
2.29	17.789
2.284	17.8352
2.278	17.8353
2.272	17.982
2.266	17.9902
2.26	18.1084
2.254	18.1653
2.248	18.2463
2.242	18.2721
2.236	18.2875
2.23	18.4047
2.224	18.4828
2.218	18.5525
2.212	18.6027
2.206	18.65
2.2	18.7449
2.194	18.7622
2.188	18.7399
2.182	18.8985
2.176	18.9106
2.17	19.0308
2.164	19.0088
2.158	19.072
2.152	19.1309
2.146	19.1978
2.14	19.2597
2.134	19.1764
2.128	19.1909
2.122	19.1288
2.116	19.1089
2.11	19.0568
2.104	19.0566
2.098	19.0184
2.092	19.0676
2.086	19.0866
2.08	19.135
2.074	19.1342
2.068	19.1767
2.062	19.1686
2.056	19.2013
2.05	19.216
2.044	19.181
2.038	19.2914
2.032	19.3123
2.026	19.2859
2.02	19.2892
2.014	19.3115
2.008	19.2564
2.002	19.3472
1.996	19.2896
1.99	19.2544
1.984	19.2832
1.978	19.3363
1.972	19.3081
1.966	19.2627
1.96	19.2113
1.954	19.2997
1.948	19.3275
1.942	19.2305
1.936	19.3288
1.93	19.2506
1.924	19.2707
1.918	19.389
1.912	19.3209
1.906	19.3377
1.9	19.2937
1.894	19.3628
1.888	19.3753
1.882	19.3675
1.876	19.3733
1.87	19.4544
1.864	19.4303
1.858	19.4284
1.852	19.4171
1.846	19.3816
1.84	19.3705
1.834	19.3953
1.828	19.3363
1.822	19.2754
1.816	19.2834
1.81	19.2725
1.804	19.3244
1.798	19.271
1.792	19.2084
1.786	19.2535
1.78	19.1642
1.774	19.1455
1.768	19.1507
1.762	19.1176
1.756	19.0342
1.75	19.0118
1.744	19.0075
1.738	18.9792
1.732	18.9081
1.726	18.9038
1.72	18.8606
1.714	18.7995
1.708	18.734
1.702	18.6408
1.696	18.6398
1.69	18.5376
1.684	18.4822
1.678	18.4578
1.672	18.4237
1.666	18.402
1.66	18.2978
1.654	18.1629
1.648	18.1642
1.642	18.2509
1.636	18.0633
1.63	17.9697
1.624	17.8956
1.618	17.778
1.612	17.717
1.606	17.7569
1.6	17.5658
1.594	17.5715
1.588	17.3741
1.582	17.2954
1.576	17.2312
1.57	17.1354
1.564	17.012
1.558	16.8963
1.552	16.7978
1.546	16.696
1.54	16.6134
1.534	16.5661
1.528	16.4638
1.522	16.3494
1.516	16.2278
1.51	16.1329
1.504	16.0264
1.498	15.9388
1.492	15.8512
1.486	15.7197
1.48	15.6009
1.474	15.5421
1.468	15.3881
1.462	15.2611
1.456	15.1941
1.45	15.0527
1.444	14.9851
1.438	14.8823
1.432	14.7876
1.426	14.7355
1.42	14.4036
1.414	13.7694
1.408	14.3583
1.402	14.3049
1.396	14.2375
1.39	14.201
1.384	14.0743
1.378	14.0412
1.372	13.7963
1.366	13.7765
1.36	13.6393
1.354	13.6297
1.348	13.4246
1.342	13.3805
1.336	13.3296
1.33	13.1745
1.324	13.1728
1.318	13.1123
1.312	12.9512
1.306	12.9213
1.3	12.795
1.294	12.7866
1.288	12.6833
1.282	12.6101
1.276	12.5526
1.27	12.4316
1.264	12.4265
1.258	12.3352
1.252	12.2759
1.246	12.0684
1.24	12.1433
1.234	12.0207
1.228	11.9901
1.222	11.8358
1.216	11.7758
1.21	11.7318
1.204	11.6896
1.198	11.5838
1.192	11.4893
1.186	11.4428
1.18	11.3517
1.174	11.2894
1.168	11.2055
1.162	11.1024
1.156	10.9859
1.15	10.8798
1.144	10.7471
1.138	10.6091
1.132	10.4187
1.126	10.2777
1.12	10.0173
1.114	9.80449
1.108	9.59161
1.102	9.3739
1.096	9.13851
1.09	8.78477
1.084	8.58122
1.078	8.33403
1.072	8.04466
1.066	7.87533
1.06	7.61721
1.054	7.31653
1.048	7.29321
1.042	7.14655
1.036	7.09752
1.03	6.94646
1.024	6.89381
1.018	6.9382
1.012	6.9315
1.006	6.82333
1	6.92965
0.994	6.90037
0.988	6.99189
0.982	7.04039
0.976	7.1128
0.97	7.22105
0.964	7.33904
0.958	7.41617
0.952	7.55922
0.946	7.70886
0.94	7.8682
0.934	8.0826
0.928	8.27477
0.922	8.51396
0.916	8.66608
0.91	8.87551
0.904	9.14683
0.898	9.41964
0.892	9.64889
0.886	9.90558
0.88	10.1577
0.874	10.4479
0.868	10.6583
0.862	10.8798
0.856	11.4792
0.85	11.708
0.844	11.9447
0.838	12.1633
0.832	12.382
0.826	12.5616
0.82	12.7468
0.814	12.8909
0.808	13.0546
0.802	13.1765
0.796	13.2917
0.79	13.3968
0.784	13.5011
0.778	13.573
0.772	13.6352
0.766	13.6925
0.76	13.749
0.754	13.7936
0.748	13.833
0.742	13.8499
0.736	13.8665
0.73	13.8882
0.724	13.885
0.718	13.8923
0.712	13.8843
0.706	13.8878
0.7	13.8757
0.694	13.8732
0.688	13.8609
0.682	13.853
0.676	13.8366
0.67	13.8272
0.664	13.8123
0.658	13.8014
0.652	13.785
0.646	13.7624
0.64	13.7392
0.634	13.7116
0.628	13.6876
0.622	13.6629
0.616	13.6481
0.61	13.6298
0.604	13.6114
0.598	13.591
0.592	13.5549
0.586	13.4898
0.58	13.4057
0.574	13.2931
0.568	13.1173
0.562	12.8287
0.556	12.4029
0.55	12.2949
0.544	12.221
0.538	11.9846
0.532	11.657
0.526	11.2842
0.52	10.8583
0.514	10.3379
0.508	10.2114
0.502	10.0835
0.496	9.77061
0.49	9.39601
0.484	9.09671
0.478	8.89041
0.472	8.79338
0.466	8.65073
0.46	8.47276
0.454	8.27641
0.448	8.08252
0.442	7.84539
0.436	7.62031
0.43	7.36679
0.424	7.08941
0.418	6.83896
0.412	6.60027
0.406	6.34516
0.4	6.06995
