Name: Witherite BaCO_3
Type: Mineral
Class: Carbonates
Particle Size: 45-125um
Sample No.: C-2A
Owner: JPL
Wavelength Range: VNIR-SWIR
Origin: United Kingdom, England
Measurement: Hemispherical reflectance
X Units: Wavelength (micrometers)
Y Units: Reflectance (percent)
wavelength	value
0.4	70.92
0.403	71.21
0.406	71.84
0.409	72.3
0.412	72.64
0.415	72.87
0.418	72.93
0.421	73.5
0.424	73.61
0.427	74.07
0.43	74.19
0.433	74.47
0.436	74.81
0.439	75.1
0.442	75.39
0.445	75.39
0.448	75.85
0.451	75.9
0.454	76.31
0.457	76.25
0.46	76.71
0.463	76.95
0.466	77.01
0.469	77.37
0.472	77.53
0.475	78
0.478	77.84
0.481	78.46
0.484	78.3
0.487	78.64
0.49	78.71
0.493	79.01
0.496	79.11
0.499	79.41
0.502	79.7
0.505	79.64
0.508	79.99
0.511	80.04
0.514	80.5
0.517	80.38
0.52	80.61
0.523	80.73
0.526	80.78
0.529	81.13
0.532	80.9
0.535	81.19
0.538	81.01
0.541	81.42
0.544	81.3
0.547	81.3
0.55	81.76
0.553	81.76
0.556	82.21
0.559	81.82
0.562	82.21
0.565	82.39
0.568	82.44
0.571	82.16
0.574	82.33
0.577	82.1
0.58	82.44
0.583	82.33
0.586	82.44
0.589	82.62
0.592	82.44
0.595	82.91
0.598	82.67
0.601	83.08
0.604	82.85
0.607	83.08
0.61	83.14
0.613	83.02
0.616	83.19
0.619	82.91
0.622	83.31
0.625	83.19
0.628	83.37
0.631	83.37
0.634	83.54
0.637	83.7
0.64	83.48
0.643	83.82
0.646	83.54
0.649	83.93
0.652	83.76
0.655	84.1
0.658	83.87
0.661	84.22
0.664	84.16
0.667	84.34
0.67	84.34
0.673	84.51
0.676	84.57
0.679	84.57
0.682	84.85
0.685	84.62
0.688	84.91
0.691	84.74
0.694	85.08
0.697	84.97
0.7	84.97
0.703	85.08
0.706	85.26
0.709	85.26
0.712	85.71
0.715	85.53
0.718	85.82
0.721	85.77
0.724	85.77
0.727	85.77
0.73	85.77
0.733	86
0.736	85.94
0.739	86.17
0.742	85.88
0.745	86.23
0.748	86
0.751	86.11
0.754	86.23
0.757	86.23
0.76	86.34
0.763	86.28
0.766	86.63
0.769	86.34
0.772	86.57
0.775	86.46
0.778	86.57
0.781	86.57
0.784	86.51
0.787	86.86
0.79	86.74
0.793	87.08
0.796	86.97
0.799	86.97
0.808	86.8
0.82	87.02
0.832	87.14
0.844	87.31
0.856	87.43
0.868	87.31
0.88	87.37
0.892	87.37
0.904	87.31
0.916	87.43
0.928	87.43
0.94	87.48
0.952	87.77
0.964	87.66
0.976	87.48
0.988	87.6
1	87.6
1.012	87.71
1.024	87.54
1.036	87.66
1.048	87.66
1.06	87.77
1.072	87.83
1.084	87.83
1.096	87.89
1.108	87.83
1.12	87.94
1.132	87.71
1.144	87.83
1.156	87.93
1.168	87.85
1.18	87.84
1.192	87.99
1.204	87.85
1.216	87.74
1.228	87.8
1.24	87.85
1.252	87.97
1.264	87.88
1.276	87.81
1.288	87.96
1.3	87.94
1.312	87.86
1.324	87.78
1.336	87.76
1.348	87.79
1.36	87.96
1.372	87.96
1.384	87.85
1.396	87.73
1.408	87.69
1.42	87.71
1.432	87.73
1.444	87.7
1.456	87.65
1.468	87.82
1.48	87.88
1.492	87.88
1.504	87.99
1.516	88.17
1.528	88.11
1.54	88.17
1.552	88.11
1.564	88.11
1.576	88.11
1.588	88.05
1.6	87.99
1.612	87.97
1.624	88.12
1.636	88.17
1.648	88.08
1.66	88.12
1.672	88.04
1.684	87.84
1.696	88.06
1.708	88.16
1.72	87.99
1.732	87.87
1.744	87.48
1.756	87.36
1.768	87.31
1.78	87.42
1.792	87.42
1.804	87.91
1.816	88.04
1.828	87.96
1.84	87.65
1.852	87.12
1.864	86.48
1.876	85.66
1.888	84.73
1.9	83.11
1.912	82.42
1.924	83.64
1.936	85.04
1.948	85.47
1.96	85.76
1.972	85.99
1.984	85.87
1.996	85.51
2.008	85.01
2.02	84.11
2.032	83.02
2.044	83.38
2.056	85.36
2.068	87.05
2.08	87.49
2.092	87.72
2.104	87.72
2.116	87.84
2.128	87.71
2.14	87.07
2.152	86.41
2.164	86.05
2.176	84.92
2.188	83.14
2.2	81.94
2.212	82.63
2.224	83.88
2.236	84.06
2.248	83.23
2.26	81.86
2.272	80.38
2.284	78.53
2.296	76.26
2.308	73.51
2.32	71.24
2.332	69.44
2.344	67.79
2.356	65.11
2.368	60.91
2.38	58.79
2.392	61.73
2.404	67.76
2.416	73.45
2.428	76.59
2.44	77.67
2.452	77.77
2.464	77.03
2.476	75.57
2.488	73.12
2.5	71
