Name: Nontronite Na_0.33Fe_2^3+(Si,Al)_4O_10(OH)_2.H_2O
Type: Mineral
Class: Silicates
Subclass: Phyllosilicates
Particle Size: 45-125um
Sample No.: PS-6B
Owner: JPL
Wavelength Range: VNIR-SWIR
Origin: Germany, Westphalia, Hohen Hagen
Measurement: Hemispherical reflectance
X Units: Wavelength (micrometers)
Y Units: Reflectance (percent)
wavelength	value
0.4	5.31
0.403	5.48
0.406	5.6
0.409	5.72
0.412	5.72
0.415	5.78
0.418	5.78
0.421	5.88
0.424	6.02
0.427	6
0.43	6.07
0.433	6.18
0.436	6.29
0.439	6.42
0.442	6.54
0.445	6.71
0.448	6.63
0.451	6.76
0.454	7
0.457	7.18
0.46	7.28
0.463	7.77
0.466	8.22
0.469	8.49
0.472	8.84
0.475	9.2
0.478	9.48
0.481	10.02
0.484	10.45
0.487	10.6
0.49	10.94
0.493	11.29
0.496	11.76
0.499	12.08
0.502	12.45
0.505	12.95
0.508	13.41
0.511	13.88
0.514	14.43
0.517	14.95
0.52	15.62
0.523	16.24
0.526	17.07
0.529	17.6
0.532	18.45
0.535	19.28
0.538	20.14
0.541	20.95
0.544	21.82
0.547	22.65
0.55	23.37
0.553	24.12
0.556	25
0.559	25.34
0.562	26.24
0.565	26.8
0.568	27.34
0.571	27.73
0.574	28.08
0.577	28.3
0.58	28.64
0.583	28.81
0.586	29.03
0.589	29.14
0.592	29.25
0.595	29.35
0.598	29.31
0.601	29.41
0.604	29.39
0.607	29.34
0.61	29.29
0.613	29.22
0.616	29.23
0.619	29.23
0.622	29.08
0.625	29.13
0.628	29.16
0.631	28.99
0.634	29.11
0.637	29.07
0.64	29.16
0.643	29.27
0.646	29.33
0.649	29.58
0.652	29.62
0.655	29.83
0.658	30.06
0.661	30.38
0.664	30.62
0.667	30.95
0.67	31.26
0.673	31.59
0.676	32.03
0.679	32.31
0.682	32.86
0.685	33.39
0.688	33.83
0.691	34.22
0.694	34.68
0.697	35.29
0.7	35.52
0.703	36.2
0.706	36.68
0.709	37.18
0.712	37.45
0.715	37.89
0.718	38.25
0.721	38.73
0.724	39.01
0.727	39.28
0.73	39.68
0.733	39.88
0.736	40.2
0.739	40.49
0.742	40.52
0.745	40.72
0.748	40.76
0.751	41.03
0.754	41.09
0.757	41.13
0.76	41.07
0.763	41.07
0.766	41.07
0.769	41.09
0.772	41.07
0.775	40.94
0.778	40.78
0.781	40.62
0.784	40.53
0.787	40.37
0.79	40.17
0.793	40.07
0.796	39.75
0.799	39.58
0.808	38.83
0.82	37.83
0.832	36.95
0.844	36.09
0.856	35.34
0.868	34.65
0.88	34.21
0.892	33.73
0.904	33.52
0.916	33.4
0.928	33.48
0.94	33.64
0.952	33.82
0.964	34.26
0.976	34.67
0.988	35.28
1	35.87
1.012	36.9
1.024	37.88
1.036	38.84
1.048	39.98
1.06	41.26
1.072	42.57
1.084	43.98
1.096	45.44
1.108	46.83
1.12	48.2
1.132	49.47
1.144	50.41
1.156	51.4
1.168	52.49
1.18	53.5
1.192	54.28
1.204	54.98
1.216	55.51
1.228	56.04
1.24	56.44
1.252	56.73
1.264	56.91
1.276	57.11
1.288	57.28
1.3	57.22
1.312	57.05
1.324	56.64
1.336	56.42
1.348	56.1
1.36	55.87
1.372	54.93
1.384	52.31
1.396	47.15
1.408	42.78
1.42	41.44
1.432	41
1.444	44.51
1.456	46.11
1.468	47.05
1.48	48.55
1.492	49.83
1.504	50.84
1.516	51.59
1.528	52.37
1.54	52.97
1.552	53.47
1.564	53.9
1.576	54.29
1.588	54.56
1.6	54.85
1.612	55
1.624	55.19
1.636	55.27
1.648	55.37
1.66	55.5
1.672	55.57
1.684	55.58
1.696	55.55
1.708	55.5
1.72	55.39
1.732	55.1
1.744	54.76
1.756	54.41
1.768	54.03
1.78	53.66
1.792	53.51
1.804	53.48
1.816	53.45
1.828	53.34
1.84	52.97
1.852	51.83
1.864	49.4
1.876	43.91
1.888	35.75
1.9	28.34
1.912	27.2
1.924	29.01
1.936	30.52
1.948	31.65
1.96	32.83
1.972	34.1
1.984	35.55
1.996	37.27
2.008	38.96
2.02	40.51
2.032	41.87
2.044	42.95
2.056	43.92
2.068	44.71
2.08	45.47
2.092	46.12
2.104	46.8
2.116	47.31
2.128	47.66
2.14	47.96
2.152	48.04
2.164	47.78
2.176	47.33
2.188	46.85
2.2	46.51
2.212	46.15
2.224	45.97
2.236	45.34
2.248	43.67
2.26	40.48
2.272	36.73
2.284	34.99
2.296	36.59
2.308	39.29
2.32	40.49
2.332	40.2
2.344	39.25
2.356	38.02
2.368	36.45
2.38	34.52
2.392	32.76
2.404	31.85
2.416	31.51
2.428	31.15
2.44	30.47
2.452	29.6
2.464	28.63
2.476	27.61
2.488	26.87
2.5	26.27
