Name: Sphalerite (Zn,Fe)S
Type: Mineral
Class: Sulfides
Particle Size: 45-125um
Sample No.: S-1A
Owner: JPL
Wavelength Range: VNIR-SWIR
Origin: USA, Oklahoma, Ottawa County, Picher
Measurement: Hemispherical reflectance
X Units: Wavelength (micrometers)
Y Units: Reflectance (percent)
wavelength	value
0.4	10.26
0.403	10.38
0.406	10.59
0.409	10.66
0.412	10.85
0.415	10.95
0.418	11.09
0.421	11.34
0.424	11.41
0.427	11.51
0.43	11.64
0.433	11.7
0.436	11.82
0.439	11.92
0.442	12.14
0.445	12.42
0.448	12.65
0.451	12.82
0.454	13.03
0.457	13.21
0.46	13.3
0.463	13.53
0.466	13.67
0.469	13.94
0.472	14.31
0.475	14.55
0.478	14.8
0.481	15.03
0.484	15.32
0.487	15.6
0.49	16.01
0.493	16.29
0.496	16.26
0.499	16.45
0.502	16.76
0.505	17.06
0.508	17.46
0.511	17.86
0.514	18.23
0.517	18.59
0.52	18.85
0.523	19.18
0.526	19.52
0.529	19.89
0.532	20.29
0.535	20.67
0.538	20.96
0.541	21.25
0.544	21.59
0.547	21.81
0.55	22.17
0.553	22.65
0.556	22.88
0.559	23.13
0.562	23.49
0.565	23.81
0.568	24.11
0.571	24.32
0.574	24.48
0.577	24.64
0.58	24.71
0.583	24.94
0.586	25.13
0.589	25.38
0.592	25.66
0.595	25.75
0.598	25.85
0.601	25.98
0.604	26.15
0.607	26.38
0.61	26.48
0.613	26.54
0.616	26.55
0.619	26.57
0.622	26.58
0.625	26.67
0.628	26.78
0.631	26.9
0.634	26.95
0.637	26.96
0.64	27.01
0.643	27.2
0.646	27.34
0.649	27.47
0.652	27.68
0.655	27.92
0.658	28.12
0.661	28.26
0.664	28.56
0.667	28.79
0.67	28.94
0.673	29.17
0.676	29.33
0.679	29.59
0.682	29.8
0.685	30.02
0.688	30.32
0.691	30.52
0.694	30.74
0.697	31.03
0.7	31.32
0.703	31.61
0.706	32
0.709	32.31
0.712	32.76
0.715	33.1
0.718	33.43
0.721	33.78
0.724	34.13
0.727	34.43
0.73	34.76
0.733	35.16
0.736	35.42
0.739	35.62
0.742	35.85
0.745	36.13
0.748	36.37
0.751	36.49
0.754	36.67
0.757	36.81
0.76	36.99
0.763	37.06
0.766	37.28
0.769	37.36
0.772	37.45
0.775	37.57
0.778	37.77
0.781	37.82
0.784	37.98
0.787	38.12
0.79	38.23
0.793	38.3
0.796	38.43
0.799	38.68
0.808	38.99
0.82	39.39
0.832	39.76
0.844	40.14
0.856	40.59
0.868	40.97
0.88	41.38
0.892	41.82
0.904	42.25
0.916	42.62
0.928	42.9
0.94	43.03
0.952	43.24
0.964	43.27
0.976	43.38
0.988	43.39
1	43.51
1.012	43.51
1.024	43.6
1.036	43.64
1.048	43.69
1.06	43.68
1.072	43.75
1.084	43.78
1.096	43.88
1.108	43.78
1.12	43.83
1.132	43.75
1.144	43.75
1.156	43.76
1.168	43.68
1.18	43.74
1.192	43.72
1.204	43.72
1.216	43.75
1.228	43.72
1.24	43.75
1.252	43.85
1.264	43.77
1.276	43.74
1.288	43.66
1.3	43.58
1.312	43.54
1.324	43.47
1.336	43.44
1.348	43.59
1.36	43.55
1.372	43.53
1.384	43.47
1.396	43.42
1.408	43.42
1.42	43.39
1.432	43.3
1.444	43.35
1.456	43.33
1.468	43.4
1.48	43.4
1.492	43.45
1.504	43.39
1.516	43.41
1.528	43.38
1.54	43.27
1.552	43.3
1.564	43.29
1.576	43.26
1.588	43.27
1.6	43.29
1.612	43.3
1.624	43.27
1.636	43.36
1.648	43.46
1.66	43.53
1.672	43.57
1.684	43.71
1.696	43.73
1.708	43.89
1.72	44.05
1.732	44.19
1.744	44.33
1.756	44.41
1.768	44.47
1.78	44.63
1.792	44.77
1.804	44.87
1.816	44.88
1.828	44.78
1.84	44.67
1.852	44.45
1.864	44.14
1.876	43.83
1.888	43.31
1.9	42.79
1.912	42.11
1.924	41.41
1.936	40.59
1.948	39.66
1.96	38.76
1.972	37.7
1.984	36.55
1.996	35.48
2.008	34.34
2.02	33.08
2.032	31.86
2.044	30.55
2.056	29.28
2.068	28.04
2.08	26.8
2.092	25.65
2.104	24.42
2.116	23.35
2.128	22.25
2.14	21.06
2.152	19.91
2.164	19
2.176	18.12
2.188	17.27
2.2	16.51
2.212	15.76
2.224	15.04
2.236	14.47
2.248	13.9
2.26	13.35
2.272	12.79
2.284	12.28
2.296	11.74
2.308	11.2
2.32	10.88
2.332	10.57
2.344	10.34
2.356	10.02
2.368	9.78
2.38	9.63
2.392	9.34
2.404	9.11
2.416	8.9
2.428	8.69
2.44	8.6
2.452	8.48
2.464	8.44
2.476	8.32
2.488	8.22
2.5	8.17
