Name: Tremolite Ca_2(Mg,Fe^2+)_5Si_8O_22(OH)_2
Type: Mineral
Class: Silicates
Subclass: Inosilicates
Particle Size: 45-125um
Sample No.: IN-5A
Owner: JPL
Origin: None.
Measurement: Hemispherical reflectance
X Units: Wavelength (micrometers)
Y Units: Reflectance (percent)
wavelength	value
2.5	57.3014
2.494	56.7073
2.488	56.1847
2.482	55.8182
2.476	55.294
2.47	54.9239
2.464	54.6474
2.458	54.843
2.452	55.2892
2.446	56.0022
2.44	57.0864
2.434	58.4409
2.428	59.6972
2.422	59.6367
2.416	59.0929
2.41	58.8997
2.404	57.9956
2.398	54.8698
2.392	49.7927
2.386	45.817
2.38	45.7567
2.374	49.4139
2.368	54.4337
2.362	58.6002
2.356	61.4506
2.35	63.432
2.344	64.8223
2.338	64.7372
2.332	61.3577
2.326	54.2439
2.32	45.9783
2.314	40.1711
2.308	38.6239
2.302	39.2994
2.296	40.8658
2.29	44.1055
2.284	48.7158
2.278	52.994
2.272	57.1118
2.266	61.7563
2.26	66.0803
2.254	69.1486
2.248	70.6051
2.242	71.413
2.236	72.085
2.23	72.5881
2.224	72.9864
2.218	73.0713
2.212	73.2407
2.206	73.3261
2.2	73.4627
2.194	73.351
2.188	73.2987
2.182	73.0914
2.176	73.1193
2.17	73.2984
2.164	73.2951
2.158	72.8931
2.152	72.486
2.146	72.1398
2.14	71.9705
2.134	71.1008
2.128	69.9673
2.122	69.5884
2.116	68.8527
2.11	68.453
2.104	70.7573
2.098	72.5923
2.092	72.7549
2.086	72.6919
2.08	73.0241
2.074	73.4772
2.068	73.7196
2.062	73.899
2.056	73.9188
2.05	74.3744
2.044	75.0481
2.038	75.6621
2.032	75.9599
2.026	75.9089
2.02	75.5589
2.014	75.1709
2.008	75.1247
2.002	75.2489
1.996	75.4539
1.99	75.5106
1.984	75.8549
1.978	76.1169
1.972	76.3802
1.966	76.5112
1.96	76.6983
1.954	76.8313
1.948	76.7482
1.942	76.8486
1.936	76.9233
1.93	76.9516
1.924	76.9097
1.918	76.9802
1.912	77.0185
1.906	77.0296
1.9	77.3279
1.894	77.5436
1.888	77.851
1.882	77.9741
1.876	77.9976
1.87	78.0184
1.864	78.078
1.858	78.0828
1.852	78.1931
1.846	78.2837
1.84	78.3907
1.834	78.5448
1.828	78.6687
1.822	78.7421
1.816	78.8744
1.81	78.9294
1.804	79.0775
1.798	79.1513
1.792	79.1369
1.786	79.1061
1.78	79.1145
1.774	79.0807
1.768	79.0918
1.762	79.0552
1.756	79.1225
1.75	79.1262
1.744	79.1494
1.738	79.2409
1.732	79.2702
1.726	79.2614
1.72	79.2792
1.714	79.3087
1.708	79.2615
1.702	79.3241
1.696	79.3386
1.69	79.275
1.684	79.3188
1.678	79.366
1.672	79.2927
1.666	79.3023
1.66	79.3042
1.654	79.3452
1.648	79.3451
1.642	79.3985
1.636	79.2449
1.63	79.2881
1.624	79.4247
1.618	79.416
1.612	79.3842
1.606	79.3889
1.6	79.363
1.594	79.3019
1.588	79.3937
1.582	79.3897
1.576	79.402
1.57	79.339
1.564	79.3513
1.558	79.3253
1.552	79.2763
1.546	79.169
1.54	79.062
1.534	79.1449
1.528	79.1134
1.522	79.2514
1.516	79.242
1.51	79.0655
1.504	79.1111
1.498	79.0657
1.492	79.101
1.486	79.0838
1.48	78.8876
1.474	78.5464
1.468	78.7503
1.462	78.9394
1.456	78.9086
1.45	78.846
1.444	78.9038
1.438	78.8248
1.432	78.8145
1.426	78.8117
1.42	78.6816
1.414	78.6586
1.408	78.6591
1.402	77.4333
1.396	62.8566
1.39	64.8363
1.384	77.7941
1.378	77.3025
1.372	78.3698
1.366	78.701
1.36	78.8285
1.354	78.9684
1.348	78.8997
1.342	78.8868
1.336	78.8975
1.33	78.7749
1.324	78.7879
1.318	78.796
1.312	78.8696
1.306	78.8712
1.3	78.3407
1.294	78.7762
1.288	78.8539
1.282	78.6559
1.276	78.2913
1.27	78.5294
1.264	78.6787
1.258	78.6874
1.252	78.721
1.246	78.5992
1.24	78.5601
1.234	78.6042
1.228	78.4817
1.222	78.429
1.216	78.3597
1.21	78.3108
1.204	78.2183
1.198	78.1968
1.192	78.0703
1.186	78.0407
1.18	77.9841
1.174	77.863
1.168	77.7717
1.162	77.6861
1.156	77.5741
1.15	77.3774
1.144	77.2972
1.138	77.1087
1.132	76.8408
1.126	76.643
1.12	76.3482
1.114	76.078
1.108	75.6515
1.102	75.199
1.096	74.8124
1.09	74.3523
1.084	73.8107
1.078	73.2413
1.072	72.633
1.066	72.1879
1.06	71.7139
1.054	71.4645
1.048	71.2343
1.042	71.0767
1.036	71.1559
1.03	71.2162
1.024	71.31
1.018	71.5688
1.012	71.7843
1.006	72.052
1	72.3933
0.994	72.7489
0.988	73.0719
0.982	73.5206
0.976	73.8553
0.97	74.1643
0.964	74.5246
0.958	74.8108
0.952	73.3761
0.946	74.8952
0.94	75.6581
0.934	75.9504
0.928	76.1782
0.922	76.3991
0.916	76.5752
0.91	76.7643
0.904	76.8661
0.898	77.0166
0.892	77.1499
0.886	77.2482
0.88	77.3506
0.874	77.497
0.868	77.5077
0.862	77.6016
0.856	77.7249
0.85	77.828
0.844	77.912
0.838	77.983
0.832	78.0235
0.826	78.1277
0.82	78.162
0.814	78.2035
0.808	78.3328
0.802	78.3053
0.796	78.331
0.79	78.3147
0.784	78.3035
0.778	78.3691
0.772	78.322
0.766	78.3641
0.76	78.3643
0.754	78.3861
0.748	78.3613
0.742	78.369
0.736	78.3538
0.73	78.1873
0.724	78.3312
0.718	78.2721
0.712	78.2821
0.706	78.2389
0.7	78.1648
0.694	78.1539
0.688	78.089
0.682	78.0676
0.676	78.0131
0.67	77.9709
0.664	77.902
0.658	77.8693
0.652	77.8028
0.646	77.7453
0.64	77.6945
0.634	77.6156
0.628	77.547
0.622	77.4715
0.616	77.3984
0.61	77.3378
0.604	77.2506
0.598	77.1824
0.592	77.1334
0.586	77.0352
0.58	76.9333
0.574	76.7973
0.568	76.69
0.562	76.5347
0.556	76.3871
0.55	76.2002
0.544	76.0146
0.538	75.8484
0.532	75.6687
0.526	75.482
0.52	75.269
0.514	75.0251
0.508	74.7211
0.502	74.4609
0.496	74.1824
0.49	73.8583
0.484	73.5553
0.478	73.2529
0.472	72.965
0.466	72.6792
0.46	72.3795
0.454	72.0204
0.448	71.6268
0.442	71.1579
0.436	70.6421
0.43	70.1763
0.424	69.7115
0.418	69.1831
0.412	68.6142
0.406	68.0159
0.4	67.3622
