Name: Mimetite Pb_5(AsO_4)_3Cl
Type: Mineral
Class: Arsenates
Particle Size: 125-500um
Sample No.: A-1A
Owner: JPL
Origin: Mexico, Chihuahua, Ingla Tierra Mine.
Measurement: Hemispherical reflectance
X Units: Wavelength (micrometers)
Y Units: Reflectance (percent)
wavelength	value
2.5	66.5993
2.494	66.5324
2.488	66.6095
2.482	66.861
2.476	66.9084
2.47	67.05
2.464	67.3337
2.458	67.4075
2.452	67.5215
2.446	67.667
2.44	67.8531
2.434	67.9067
2.428	67.8858
2.422	68.01
2.416	68.1129
2.41	68.1492
2.404	68.3373
2.398	68.4922
2.392	68.6878
2.386	68.8617
2.38	69.0108
2.374	69.1039
2.368	69.1839
2.362	69.2471
2.356	69.1842
2.35	69.1121
2.344	68.9542
2.338	68.8654
2.332	68.7362
2.326	68.7537
2.32	68.89
2.314	69.0999
2.308	69.3004
2.302	69.599
2.296	69.6245
2.29	69.649
2.284	69.591
2.278	69.4606
2.272	69.2792
2.266	69.185
2.26	69.2914
2.254	69.5786
2.248	69.9304
2.242	70.1124
2.236	70.3801
2.23	70.4631
2.224	70.5621
2.218	70.7729
2.212	70.9781
2.206	70.9738
2.2	71.1374
2.194	71.2604
2.188	71.3513
2.182	71.4242
2.176	71.6178
2.17	71.7047
2.164	71.8512
2.158	72.0376
2.152	72.1572
2.146	72.2034
2.14	72.1646
2.134	72.0409
2.128	71.9933
2.122	71.7063
2.116	71.5997
2.11	71.3042
2.104	71.1033
2.098	71.0024
2.092	71.0474
2.086	71.109
2.08	71.1979
2.074	71.1279
2.068	71.2108
2.062	71.3986
2.056	71.407
2.05	71.4354
2.044	71.5453
2.038	71.4947
2.032	71.5029
2.026	71.5139
2.02	71.5054
2.014	71.5899
2.008	71.5663
2.002	71.5458
1.996	71.5092
1.99	71.4832
1.984	71.352
1.978	71.3596
1.972	71.3494
1.966	71.3893
1.96	71.3341
1.954	71.385
1.948	71.4715
1.942	71.5835
1.936	71.7032
1.93	72.0716
1.924	72.0948
1.918	72.4628
1.912	72.6818
1.906	73.028
1.9	73.3847
1.894	73.8316
1.888	74.2534
1.882	74.6091
1.876	74.8684
1.87	75.1865
1.864	75.3814
1.858	75.6255
1.852	75.7577
1.846	75.8951
1.84	76.0411
1.834	76.2535
1.828	76.4083
1.822	76.459
1.816	76.6315
1.81	76.798
1.804	76.8777
1.798	77.1262
1.792	77.1814
1.786	77.3169
1.78	77.4959
1.774	77.5896
1.768	77.6681
1.762	77.8384
1.756	77.9399
1.75	78.1482
1.744	78.7249
1.738	78.4681
1.732	78.6178
1.726	78.7384
1.72	78.8296
1.714	79.001
1.708	79.0963
1.702	79.1351
1.696	79.3021
1.69	79.3658
1.684	79.5319
1.678	79.5374
1.672	79.7293
1.666	79.8767
1.66	79.9223
1.654	80.0254
1.648	80.1971
1.642	80.2936
1.636	80.392
1.63	80.4139
1.624	80.5994
1.618	80.735
1.612	80.7858
1.606	80.8872
1.6	80.9308
1.594	81.0333
1.588	81.1353
1.582	81.2293
1.576	81.2274
1.57	81.3669
1.564	81.377
1.558	81.4608
1.552	81.4688
1.546	81.4641
1.54	81.5489
1.534	81.5694
1.528	81.6213
1.522	81.6498
1.516	81.7221
1.51	81.7018
1.504	81.7165
1.498	81.7735
1.492	81.7597
1.486	81.8089
1.48	81.796
1.474	81.7409
1.468	81.748
1.462	81.7509
1.456	81.7847
1.45	81.8486
1.444	81.9131
1.438	81.4023
1.432	82.0725
1.426	82.2328
1.42	82.3188
1.414	82.3598
1.408	82.5086
1.402	82.6974
1.396	82.93
1.39	83.0161
1.384	83.1772
1.378	83.1747
1.372	83.1954
1.366	83.3057
1.36	83.2972
1.354	83.3394
1.348	83.3055
1.342	83.3213
1.336	83.3939
1.33	83.3928
1.324	83.5195
1.318	83.4783
1.312	83.544
1.306	83.524
1.3	83.5124
1.294	83.5532
1.288	83.5582
1.282	83.4981
1.276	83.603
1.27	83.6464
1.264	83.5999
1.258	83.6293
1.252	83.6585
1.246	83.6174
1.24	83.6287
1.234	83.6309
1.228	83.5881
1.222	83.628
1.216	83.615
1.21	83.5674
1.204	83.5784
1.198	83.5662
1.192	83.4967
1.186	83.5833
1.18	83.5193
1.174	83.533
1.168	83.4652
1.162	83.4728
1.156	83.5035
1.15	83.4189
1.144	83.3662
1.138	83.35
1.132	83.3624
1.126	83.2696
1.12	83.1538
1.114	83.0484
1.108	83.082
1.102	83.0412
1.096	82.9611
1.09	82.8133
1.084	82.823
1.078	82.77
1.072	82.638
1.066	82.5233
1.06	82.49
1.054	82.3978
1.048	82.3662
1.042	82.29
1.036	82.1412
1.03	82.0053
1.024	81.929
1.018	81.8434
1.012	81.7789
1.006	81.5971
1	81.6275
0.994	81.545
0.988	81.463
0.982	81.409
0.976	81.219
0.97	81.1811
0.964	81.1408
0.958	81.0988
0.952	81.0426
0.946	81.0065
0.94	80.8902
0.934	80.8353
0.928	80.8673
0.922	80.7285
0.916	80.7321
0.91	80.5308
0.904	80.5555
0.898	80.4734
0.892	80.3786
0.886	80.2553
0.88	80.2159
0.874	80.1738
0.868	80.0097
0.862	79.887
0.856	80.0996
0.85	79.7888
0.844	79.3911
0.838	79.4867
0.832	79.4699
0.826	79.3608
0.82	79.2682
0.814	79.1188
0.808	79.0649
0.802	79.077
0.796	79.0158
0.79	78.958
0.784	78.9863
0.778	78.8831
0.772	78.7555
0.766	78.7259
0.76	78.579
0.754	78.4129
0.748	78.3185
0.742	78.1896
0.736	78.0415
0.73	77.9401
0.724	77.7843
0.718	77.6313
0.712	77.4496
0.706	77.2676
0.7	77.1077
0.694	76.9188
0.688	76.707
0.682	76.509
0.676	76.2397
0.67	75.9588
0.664	75.7013
0.658	75.4603
0.652	75.215
0.646	74.9974
0.64	74.7682
0.634	74.4968
0.628	74.2197
0.622	73.7985
0.616	73.3698
0.61	72.828
0.604	72.1855
0.598	71.4617
0.592	70.5946
0.586	69.573
0.58	68.4648
0.574	67.1786
0.568	65.7934
0.562	64.3048
0.556	62.6568
0.55	60.978
0.544	59.0616
0.538	57.0107
0.532	54.7573
0.526	52.3428
0.52	49.7178
0.514	46.9337
0.508	44.0245
0.502	41.1216
0.496	38.1897
0.49	35.4273
0.484	32.8053
0.478	30.4192
0.472	28.2244
0.466	26.2378
0.46	24.4675
0.454	22.921
0.448	21.5685
0.442	20.3911
0.436	19.3844
0.43	18.5316
0.424	17.8461
0.418	17.2664
0.412	16.8008
0.406	16.4339
0.4	16.1141
