Name: Hematite alpha Fe_2O_3
Type: Mineral
Class: Oxides
Particle Size: 0-45um
Sample No.: O-1B
Owner: JPL
Description: Synthetic hematite.
Measurement: Hemispherical reflectance
X Units: Wavelength (micrometers)
Y Units: Reflectance (percent)
wavelength	value
15.385	0.6572
15.116	0.2899
14.856	0
14.605	0.1916
14.362	0.005
14.128	0.0122
13.9	0
13.68	0.3401
13.467	0.1992
13.26	0.5637
13.06	0.642
12.866	0.79
12.677	1.0077
12.494	1.2364
12.316	1.55
12.143	1.7888
11.974	2.1815
11.811	2.438
11.651	2.7541
11.496	3.2239
11.345	3.2335
11.198	3.4735
11.055	2.9469
10.915	2.8703
10.779	3.0953
10.647	3.8397
10.517	4.7111
10.39	5.3976
10.267	6.3981
10.146	7.5888
10.029	8.6787
9.914	9.1984
9.801	9.2083
9.691	9.3396
9.584	9.8266
9.479	11.1715
9.376	12.3986
9.275	13.5128
9.177	14.7726
9.08	14.7499
8.986	13.5444
8.893	12.4882
8.803	12.5637
8.714	14.1062
8.627	15.5323
8.542	16.5514
8.458	17.5112
8.376	18.8223
8.296	20.6574
8.217	22.7841
8.139	24.793
8.063	26.941
7.989	29.3192
7.916	31.4047
7.844	34.1493
7.773	37.1604
7.704	40.1619
7.636	42.3674
7.569	44.1177
7.503	45.2065
7.439	45.3935
7.375	46.1982
7.313	46.5417
7.252	46.9904
7.191	46.9509
7.132	46.5282
7.073	45.5865
7.016	45.4273
6.96	45.2961
6.904	43.814
6.849	42.0359
6.795	40.225
6.742	37.4772
6.69	34.7612
6.639	32.2543
6.588	29.4659
6.538	28.1468
6.489	29.0428
6.441	30.6422
6.393	33.4471
6.346	36.8625
6.3	39.2308
6.254	40.6542
6.209	40.2882
6.165	38.7663
6.121	38.2191
6.078	39.7724
6.036	42.4746
5.994	45.7221
5.953	48.5706
5.912	51.236
5.872	53.7249
5.832	55.5263
5.793	56.7375
5.755	57.8437
5.716	58.6529
5.679	59.2147
5.642	59.8107
5.605	59.8826
5.569	60.0804
5.533	60.2199
5.498	60.2265
5.463	60.4273
5.429	60.323
5.395	60.1958
5.362	60.1016
5.329	59.9334
5.296	59.7518
5.264	59.5311
5.232	59.2115
5.2	58.95
5.169	58.6927
5.139	58.4491
5.108	58.2359
5.078	58.1147
5.049	58.09
5.019	58.0819
4.99	58.0676
4.962	58.0207
4.933	57.964
4.905	57.8455
4.878	57.7321
4.85	57.6682
4.823	57.5793
4.796	57.4649
4.77	57.4727
4.744	57.4297
4.718	57.4676
4.692	57.5435
4.667	57.5554
4.642	57.8241
4.617	58.1208
4.592	58.4969
4.568	59.0839
4.544	59.8084
4.52	60.619
4.497	61.6651
4.474	62.6778
4.45	63.8269
4.428	64.7099
4.405	65.4817
4.383	66.2093
4.361	66.6686
4.339	67.0994
4.317	67.4938
4.296	67.7575
4.274	68.1039
4.253	68.3451
4.233	68.6816
4.212	68.8439
4.191	68.9528
4.171	69.1593
4.151	69.2265
4.131	69.3252
4.112	69.4352
4.092	69.4626
4.073	69.5838
4.054	69.4894
4.035	69.4661
4.016	69.4563
3.998	69.3961
3.979	69.259
3.961	69.2138
3.943	69.0916
3.925	68.8227
3.907	68.6151
3.89	68.3855
3.872	68.0858
3.855	67.7827
3.838	67.469
3.821	67.1547
3.804	66.7986
3.787	66.4122
3.771	66.142
3.754	65.6576
3.738	65.2437
3.722	64.6251
3.706	64.1486
3.69	63.6649
3.675	63.0854
3.659	62.4765
3.644	61.9571
3.628	61.4416
3.613	60.9502
3.598	60.3152
3.583	59.6735
3.568	59.1021
3.554	58.3997
3.539	57.2699
3.525	56.3329
3.51	55.635
3.496	55.0182
3.482	54.7381
3.468	54.1906
3.454	53.4626
3.441	52.6929
3.427	51.5794
3.413	50.7132
3.4	50.585
3.387	50.0594
3.373	49.5113
3.36	49.2279
3.347	48.8519
3.334	48.2098
3.321	47.7544
3.309	47.1125
3.296	46.4678
3.284	45.8666
3.271	45.2458
3.259	44.806
3.247	44.1006
3.234	43.5262
3.222	42.9761
3.21	42.4908
3.199	41.7982
3.187	41.487
3.175	40.903
3.163	40.3742
3.152	39.9644
3.14	39.6246
3.129	39.1311
3.118	38.7105
3.107	38.3282
3.095	38.0716
3.084	37.82
3.073	37.5112
3.063	37.2335
3.052	36.9926
3.041	36.5035
3.03	36.1538
3.02	35.829
3.009	35.6202
2.999	35.1188
2.988	34.7169
2.978	34.4218
2.968	33.9549
2.958	33.7867
2.948	33.7358
2.938	33.6375
2.928	33.7804
2.918	33.7274
2.908	34.0143
2.898	34.7291
2.888	34.7891
2.879	35.4243
2.869	36.1005
2.86	36.5937
2.85	37.6032
2.841	38.259
2.832	39.275
2.822	40.6811
2.813	42.2049
2.804	44.2569
2.795	46.2688
2.786	48.3427
2.777	49.6126
2.768	50.034
2.759	52.2731
2.751	55.0195
2.742	58.9382
2.733	61.9762
2.725	62.9179
2.716	60.8212
2.707	58.326
2.699	63.5822
2.691	71.4918
2.682	76.6123
2.674	79.2666
2.666	81.0618
2.658	81.4845
2.649	82.3506
2.641	82.8111
2.633	83.4518
2.625	83.7699
2.617	84.4183
2.609	84.5847
2.602	84.8205
2.594	85.3386
2.586	85.2703
2.578	85.333
2.571	85.6039
2.563	85.8578
2.555	85.7543
2.548	85.6903
2.54	85.735
2.533	86.0612
2.525	86.0351
2.518	86.0634
2.511	86.1621
2.504	86.3365
2.496	86.3226
2.489	86.5373
2.482	86.4971
2.475	86.8401
2.468	86.9828
2.461	87.0597
2.454	87.1159
2.447	87.1668
2.44	87.3014
2.433	87.4659
2.426	87.4756
2.419	87.6996
2.413	87.8355
2.406	87.8033
2.399	87.938
2.393	88.0702
2.386	88.0688
2.379	88.3311
2.373	88.3248
2.366	88.3974
2.36	88.658
2.354	88.8976
2.347	89.0533
2.341	89.2636
2.334	89.4236
2.328	89.6661
2.322	89.6013
2.316	89.6472
2.309	90.0583
2.303	89.7586
2.297	90.0642
2.291	90.118
2.285	90.3536
2.279	90.2948
2.273	90.5447
2.267	90.4709
2.261	90.7034
2.255	90.6557
2.249	90.7639
2.244	91.0189
2.238	90.9842
2.232	90.9986
2.226	91.3794
2.22	91.3897
2.215	91.3494
2.209	91.6407
2.204	91.6299
2.198	91.6561
2.192	91.7107
2.187	91.7079
2.181	91.7595
2.176	91.7991
2.17	91.9446
2.165	91.8534
2.159	92.052
2.154	92.0327
2.149	91.8564
2.143	91.8885
2.138	92.0272
2.133	91.8243
2.128	91.8097
2.122	91.9184
2.117	91.9826
2.112	91.9026
2.107	91.9611
2.102	92.1516
2.097	92.173
2.091	91.7751
2.086	91.7001
2.081	91.8235
2.076	91.9503
2.071	91.8878
2.066	91.7111
2.062	92.0609
2.057	91.7729
2.052	92.0979
2.047	91.6949
2.042	91.7666
2.037	91.692
2.032	91.6371
2.028	91.6147
2.023	91.7038
2.018	91.6604
2.014	91.3013
2.009	91.392
2.004	91.335
