Name: Colemanite Ca_2B_6O_11.5H_2O
Type: Mineral
Class: Borates
Particle Size: 0-45um
Sample No.: B-1A
Owner: JPL
Origin: USA, California, Kern County, Boron
Measurement: Hemispherical reflectance
X Units: Wavelength (micrometers)
Y Units: Reflectance (percent)
wavelength	value
15.3853	3.89731
15.1161	4.5378
14.8563	3.7818
14.6052	4.48644
14.3624	3.92285
14.1276	4.23265
13.9004	3.95812
13.6803	3.95068
13.4671	3.97595
13.2604	4.96549
13.06	4.35346
12.8656	3.53431
12.6769	3.66686
12.4936	3.81256
12.3155	4.05187
12.1425	3.82353
11.9742	4.40971
11.8106	4.85407
11.6513	5.52411
11.4963	5.52675
11.3454	5.5735
11.1983	6.19001
11.0551	7.10754
10.9154	7.54228
10.7793	6.56256
10.6465	6.52487
10.5169	7.01703
10.3904	6.41022
10.267	4.85508
10.1464	3.78067
10.0287	3.18895
9.91364	2.84053
9.80119	2.50369
9.69128	2.56096
9.5838	2.99785
9.47867	3.40029
9.37583	2.14997
9.27519	1.68087
9.17669	1.20734
9.08027	1.42646
8.98585	1.53763
8.89337	1.66524
8.80277	1.46121
8.714	1.2982
8.62701	1.37501
8.54174	1.27475
8.45813	1.10854
8.37614	1.53875
8.29573	1.94218
8.21685	2.05128
8.13946	2.04756
8.0635	1.75134
7.98896	2.04125
7.91578	2.44283
7.84392	2.53776
7.77337	2.24678
7.70406	2.25546
7.63598	2.88391
7.5691	3.92458
7.50338	4.37619
7.43879	4.52348
7.37529	4.24836
7.31288	5.70214
7.25152	6.31922
7.19117	5.53229
7.13182	4.55303
7.07344	3.13435
7.01601	1.56966
6.95951	0.920911
6.90391	0.450923
6.84918	0.509976
6.79532	0.428315
6.74231	0.300914
6.69011	0.624622
6.63871	0.754658
6.5881	0.991306
6.53825	1.16389
6.48915	1.4508
6.44079	1.47746
6.39314	1.6276
6.34618	1.6
6.29992	1.59261
6.25432	1.64994
6.20938	1.65757
6.16508	1.7862
6.12141	1.95053
6.07835	2.1001
6.0359	2.21205
5.99403	2.27758
5.95274	2.26026
5.91201	2.45253
5.87184	2.45678
5.83221	2.90611
5.79311	3.39497
5.75453	4.19534
5.71646	4.97483
5.6789	5.63588
5.64182	6.36161
5.60522	6.93406
5.5691	7.54807
5.53344	7.81066
5.49823	8.116
5.46347	8.6179
5.42914	8.96774
5.39525	9.34313
5.36177	9.70045
5.32871	10.145
5.29605	10.5062
5.26379	10.8376
5.23192	11.2947
5.20044	11.7268
5.16933	12.0039
5.13859	12.2557
5.10821	12.453
5.07819	12.5552
5.04852	12.636
5.0192	12.6339
4.99021	12.7548
4.96156	13.1698
4.93324	13.3976
4.90524	13.8314
4.87755	14.1203
4.85017	14.25
4.8231	14.316
4.79633	14.2521
4.76986	14.1425
4.74367	13.9039
4.71777	13.5279
4.69216	13.3026
4.66682	13.2009
4.64175	13.0037
4.61695	13.0279
4.59241	13.1007
4.56814	13.0653
4.54411	13.2375
4.52034	13.4663
4.49682	13.6505
4.47354	13.9681
4.4505	14.4058
4.4277	14.8469
4.40513	15.28
4.38278	15.5351
4.36067	15.8632
4.33877	15.907
4.3171	15.7983
4.29564	15.7607
4.27439	15.7109
4.25335	15.6504
4.23252	15.299
4.21189	15.109
4.19146	14.8019
4.17123	14.3494
4.15119	13.6997
4.13134	13.1384
4.11168	12.0433
4.09221	10.7696
4.07292	9.704
4.05382	9.01538
4.03489	8.8093
4.01614	8.97678
3.99756	8.8094
3.97915	8.62698
3.96091	8.61254
3.94284	8.52911
3.92493	9.0704
3.90718	9.27061
3.8896	9.49221
3.87217	9.68731
3.8549	10.0773
3.83777	10.4395
3.82081	10.4973
3.80399	10.6179
3.78731	10.9815
3.77079	11.0806
3.7544	11.1147
3.73816	10.8701
3.72206	10.7735
3.7061	10.5063
3.69027	10.3386
3.67458	9.92592
3.65902	9.81132
3.64359	9.76684
3.6283	9.42141
3.61312	9.23847
3.59808	8.87838
3.58316	8.62295
3.56836	8.18994
3.55369	7.64771
3.53914	7.43941
3.5247	7.09004
3.51038	6.75585
3.49618	6.48911
3.48209	6.15789
3.46812	5.69964
3.45425	5.43613
3.4405	5.20433
3.42686	4.98214
3.41332	4.52262
3.39989	4.2576
3.38657	3.97836
3.37335	3.81088
3.36023	3.48337
3.34721	3.44841
3.3343	3.13777
3.32148	3.13517
3.30876	2.91272
3.29614	2.73283
3.28362	2.69329
3.27119	2.61747
3.25885	2.46643
3.24661	2.41433
3.23446	2.27905
3.22239	2.30727
3.21042	1.97406
3.19854	2.00262
3.18674	1.82693
3.17504	1.84792
3.16341	1.56007
3.15187	1.68257
3.14042	1.57056
3.12905	1.46579
3.11776	1.52114
3.10655	1.46614
3.09542	1.40719
3.08437	1.51044
3.0734	1.31439
3.06251	1.13134
3.0517	1.16165
3.04096	1.21895
3.03029	1.18533
3.0197	1.13663
3.00919	1.14634
2.99875	1.04738
2.98838	1.41586
2.97808	1.29555
2.96785	1.21405
2.95769	1.15013
2.9476	1.2375
2.93758	1.55328
2.92763	1.60813
2.91775	1.96171
2.90793	2.06002
2.89817	2.64231
2.88849	2.88006
2.87886	2.71026
2.8693	3.15892
2.85981	3.25722
2.85038	3.16047
2.841	2.90198
2.83169	3.01657
2.82245	3.11272
2.81326	3.81388
2.80413	4.2969
2.79506	4.33508
2.78605	2.72096
2.77709	1.69144
2.7682	1.38796
2.75936	3.23741
2.75057	7.72805
2.74185	11.0692
2.73318	13.7432
2.72456	15.7455
2.71599	16.8015
2.70748	19.1232
2.69903	21.5754
2.69062	23.9183
2.68227	25.879
2.67397	27.4421
2.66572	29.6658
2.65753	29.3664
2.64938	29.8987
2.64128	30.8585
2.63323	31.9134
2.62523	32.8709
2.61728	34.1669
2.60938	34.103
2.60152	34.4048
2.59371	35.6474
2.58595	35.3277
2.57824	35.4878
2.57057	36.1481
2.56294	36.9924
2.55536	36.6619
2.54783	37.3684
2.54034	38.1736
2.53289	39.5241
2.52549	40.2495
2.51813	40.8989
2.51082	40.8998
2.50354	40.8383
2.49631	41.1921
2.48912	41.5282
2.48197	41.3402
2.47486	41.0311
2.46779	40.7796
2.46077	40.8141
2.45378	40.99
2.44683	41.2633
2.43992	41.867
2.43305	42.4744
2.42622	42.7573
2.41943	43.0206
2.41267	43.599
2.40595	44.5195
2.39928	46.0394
2.39263	47.3213
2.38603	48.7021
2.37946	50.3748
2.37292	51.4678
2.36642	52.5769
2.35996	54.1625
2.35353	55.1654
2.34714	56.0456
2.34078	56.3403
2.33446	57.0913
2.32817	57.6689
2.32191	58.2565
2.31569	58.7552
2.3095	58.9891
2.30335	58.6802
2.29722	58.9014
2.29113	58.8102
2.28507	58.6967
2.27905	58.2993
2.27305	58.0118
2.26709	57.4661
2.26116	57.4457
2.25526	56.9225
2.24939	56.2757
2.24355	55.4929
2.23774	54.3393
2.23196	53.4796
2.22621	52.7852
2.22049	52.3363
2.21479	51.3345
2.20913	49.9776
2.2035	49.5997
2.19789	50.0927
2.19232	50.7045
2.18677	51.4762
2.18125	51.8639
2.17576	52.0398
2.17029	52.1741
2.16486	52.8155
2.15945	53.3796
2.15406	54.3803
2.14871	54.9559
2.14338	55.2905
2.13808	55.1828
2.1328	54.203
2.12755	52.5163
2.12232	50.4999
2.11712	48.0845
2.11195	46.6243
2.1068	45.9158
2.10168	46.7555
2.09658	49.4006
2.0915	53.4039
2.08645	56.5012
2.08143	58.9315
2.07643	59.6958
2.07145	59.0827
2.06649	59.5945
2.06156	60.1285
2.05666	60.178
2.05177	59.9867
2.04691	60.343
2.04208	60.209
2.03726	60.023
2.03247	59.624
2.0277	59.6124
2.02295	59.3694
2.01823	59.4391
2.01353	58.9999
2.00885	58.8186
2.00419	58.4871
