Name: Kernite Na_2B_4O_6(OH)_2.3H_2O
Type: Mineral
Class: Borates
Particle Size: 45-125um
Sample No.: B-2A
Owner: JPL
Origin: USA, California, Kern County, Boron.
Measurement: Hemispherical reflectance
X Units: Wavelength (micrometers)
Y Units: Reflectance (percent)
wavelength	value
2.5	33.5059
2.494	33.5746
2.488	33.6317
2.482	33.7493
2.476	34.0031
2.47	33.985
2.464	34.2401
2.458	34.2432
2.452	34.397
2.446	34.4658
2.44	34.4999
2.434	34.6652
2.428	34.8071
2.422	35.2108
2.416	35.7811
2.41	36.2228
2.404	36.7739
2.398	37.3856
2.392	38.213
2.386	39.2777
2.38	40.5536
2.374	41.8939
2.368	43.1303
2.362	44.2273
2.356	45.131
2.35	45.919
2.344	46.6608
2.338	47.4204
2.332	48.1663
2.326	48.7699
2.32	49.1904
2.314	49.4223
2.308	49.4
2.302	49.1365
2.296	48.6293
2.29	47.9021
2.284	47.1454
2.278	46.7262
2.272	46.4087
2.266	46.068
2.26	45.8072
2.254	45.5044
2.248	45.2544
2.242	44.8636
2.236	43.9436
2.23	42.8672
2.224	41.6992
2.218	40.602
2.212	39.1703
2.206	37.296
2.2	34.9631
2.194	32.4869
2.188	31.7014
2.182	33.5677
2.176	36.9662
2.17	40.0968
2.164	41.9976
2.158	42.9872
2.152	43.5464
2.146	43.9892
2.14	44.2957
2.134	44.5499
2.128	44.5851
2.122	44.5851
2.116	44.3465
2.11	43.9743
2.104	43.5172
2.098	43.0673
2.092	42.7126
2.086	42.2493
2.08	41.7137
2.074	41.123
2.068	40.4374
2.062	39.3741
2.056	37.9373
2.05	37.0325
2.044	37.0493
2.038	37.0563
2.032	36.9172
2.026	36.7499
2.02	36.329
2.014	35.6903
2.008	35.1188
2.002	34.7225
1.996	34.3287
1.99	34.114
1.984	33.9652
1.978	33.9605
1.972	34.0692
1.966	34.4775
1.96	35.3558
1.954	36.7752
1.948	38.4109
1.942	40.2489
1.936	42.2698
1.93	44.2293
1.924	46.0859
1.918	47.9925
1.912	49.759
1.906	51.6199
1.9	53.5944
1.894	55.647
1.888	57.2955
1.882	58.7147
1.876	59.7513
1.87	60.5567
1.864	61.0381
1.858	61.3752
1.852	61.6133
1.846	61.6222
1.84	61.5954
1.834	61.5508
1.828	61.3973
1.822	61.1176
1.816	60.9793
1.81	60.7435
1.804	60.4204
1.798	60.217
1.792	60.089
1.786	60.0144
1.78	60.2417
1.774	60.5392
1.768	60.8675
1.762	61.1897
1.756	61.4735
1.75	61.7112
1.744	61.9236
1.738	62.1834
1.732	62.3829
1.726	62.6271
1.72	62.883
1.714	63.1257
1.708	63.3311
1.702	63.4666
1.696	63.572
1.69	63.7253
1.684	63.7835
1.678	63.8438
1.672	63.8328
1.666	63.7706
1.66	63.7061
1.654	63.5315
1.648	63.3543
1.642	63.1063
1.636	62.8005
1.63	62.4963
1.624	62.1207
1.618	61.8194
1.612	61.518
1.606	61.2162
1.6	60.9544
1.594	60.6858
1.588	60.438
1.582	60.1705
1.576	60.0483
1.57	59.9501
1.564	59.9009
1.558	59.8628
1.552	59.8372
1.546	59.8883
1.54	60.0007
1.534	60.0235
1.528	59.8539
1.522	59.5531
1.516	59.0676
1.51	58.6789
1.504	58.3994
1.498	58.1839
1.492	58.3589
1.486	58.7377
1.48	59.2103
1.474	60.0508
1.468	61.0243
1.462	61.5103
1.456	61.2619
1.45	58.5613
1.444	54.7478
1.438	55.5823
1.432	60.5859
1.426	66.3998
1.42	71.2907
1.414	74.7503
1.408	76.3856
1.402	78.6954
1.396	80.0821
1.39	80.779
1.384	81.3261
1.378	81.6292
1.372	81.8728
1.366	82.2171
1.36	82.4125
1.354	82.7723
1.348	82.9161
1.342	83.1946
1.336	83.2942
1.33	83.2588
1.324	83.0551
1.318	82.9806
1.312	83.2692
1.306	83.8081
1.3	83.9553
1.294	84.0295
1.288	84.0887
1.282	84.0782
1.276	83.8336
1.27	83.4278
1.264	82.9212
1.258	82.8312
1.252	83.2344
1.246	83.5684
1.24	83.9065
1.234	84.2071
1.228	84.4089
1.222	84.6043
1.216	84.7269
1.21	84.8092
1.204	85.0355
1.198	85.3468
1.192	85.8433
1.186	86.1683
1.18	86.5391
1.174	86.8832
1.168	87.2968
1.162	87.4335
1.156	87.6953
1.15	87.8651
1.144	87.8888
1.138	88.0725
1.132	88.1776
1.126	88.1816
1.12	88.2432
1.114	88.1721
1.108	88.2374
1.102	88.3134
1.096	88.4237
1.09	88.4461
1.084	88.3889
1.078	88.5226
1.072	88.4952
1.066	88.4016
1.06	88.4832
1.054	88.4061
1.048	88.3045
1.042	88.2837
1.036	88.1505
1.03	88.1754
1.024	88.1225
1.018	88.0731
1.012	87.9306
1.006	87.7877
1	87.4965
0.994	86.7695
0.988	86.0327
0.982	86.5458
0.976	87.6648
0.97	88.3787
0.964	88.7787
0.958	88.9846
0.952	89.0765
0.946	89.1258
0.94	89.1281
0.934	89.2035
0.928	89.1632
0.922	89.254
0.916	89.2198
0.91	89.21
0.904	89.2717
0.898	89.2788
0.892	89.3105
0.886	89.4119
0.88	89.4153
0.874	89.4055
0.868	89.5076
0.862	89.6038
0.856	89.6315
0.85	89.6583
0.844	89.6131
0.838	89.7113
0.832	89.7803
0.826	89.7969
0.82	89.792
0.814	89.7705
0.808	89.7775
0.802	89.7478
0.796	89.6716
0.79	89.559
0.784	89.5635
0.778	89.5135
0.772	89.4749
0.766	89.3576
0.76	89.3481
0.754	89.3519
0.748	89.4587
0.742	89.4528
0.736	89.4289
0.73	89.4466
0.724	89.4142
0.718	89.3984
0.712	89.4025
0.706	89.3723
0.7	89.3989
0.694	89.3689
0.688	89.3505
0.682	89.3708
0.676	89.3599
0.67	89.3051
0.664	89.3189
0.658	89.3094
0.652	89.2791
0.646	89.2686
0.64	89.2501
0.634	89.2233
0.628	89.1971
0.622	89.1844
0.616	89.1552
0.61	89.1296
0.604	89.1703
0.598	89.1918
0.592	89.2213
0.586	89.1674
0.58	89.1067
0.574	89.0883
0.568	89.0174
0.562	88.9581
0.556	88.8999
0.55	88.8189
0.544	88.7279
0.538	88.6392
0.532	88.5506
0.526	88.4513
0.52	88.2797
0.514	88.1591
0.508	88.0077
0.502	87.8288
0.496	87.6641
0.49	87.4963
0.484	87.3045
0.478	87.1665
0.472	87.0021
0.466	86.8218
0.46	86.6618
0.454	86.4749
0.448	86.3193
0.442	86.1395
0.436	85.9217
0.43	85.7638
0.424	85.598
0.418	85.447
0.412	85.2765
0.406	85.1244
0.4	84.9452
