Name: Alunite KAl_3(SO_4)_2(OH)_6
Type: Mineral
Class: Sulfates
Particle Size: 45-125um
Sample No.: SO-4A
Owner: JPL
Wavelength Range: VNIR-SWIR
Origin: USA, Utah
Measurement: Hemispherical reflectance
X Units: Wavelength (micrometers)
Y Units: Reflectance (percent)
wavelength	value
0.4	52.88
0.403	53.56
0.406	54.54
0.409	54.65
0.412	55.4
0.415	55.74
0.418	56.25
0.421	56.83
0.424	56.54
0.427	57.29
0.43	57.29
0.433	57.74
0.436	58.61
0.439	58.55
0.442	59.06
0.445	59.4
0.448	59.58
0.451	60.21
0.454	59.92
0.457	60.61
0.46	60.67
0.463	61.26
0.466	61.37
0.469	61.2
0.472	61.72
0.475	61.5
0.478	61.96
0.481	62.53
0.484	62.42
0.487	63.23
0.49	63.24
0.493	63.58
0.496	64.16
0.499	63.99
0.502	64.91
0.505	64.73
0.508	65.02
0.511	65.88
0.514	65.76
0.517	66.57
0.52	66.91
0.523	67.03
0.526	67.94
0.529	67.83
0.532	68.75
0.535	68.85
0.538	69.09
0.541	69.95
0.544	69.78
0.547	70.75
0.55	70.98
0.553	71.32
0.556	72.18
0.559	71.9
0.562	73.33
0.565	73.27
0.568	74.24
0.571	74.36
0.574	74.76
0.577	75.44
0.58	75.39
0.583	76.02
0.586	76.25
0.589	76.6
0.592	77.33
0.595	77.05
0.598	78.03
0.601	78.26
0.604	78.71
0.607	79.34
0.61	79.28
0.613	80.32
0.616	79.98
0.619	80.48
0.622	80.54
0.625	80.83
0.628	81.23
0.631	81.12
0.634	81.75
0.637	81.52
0.64	81.93
0.643	81.98
0.646	82.15
0.649	82.67
0.652	82.38
0.655	83.3
0.658	82.84
0.661	83.24
0.664	83.69
0.667	83.36
0.67	83.75
0.673	83.75
0.676	84.33
0.679	84.15
0.682	84.04
0.685	84.73
0.688	84.61
0.691	85.13
0.694	84.9
0.697	85.13
0.7	85.41
0.703	85.25
0.706	85.25
0.709	85.76
0.712	85.31
0.715	85.82
0.718	85.93
0.721	85.53
0.724	85.99
0.727	86.1
0.73	85.82
0.733	86.28
0.736	85.93
0.739	86.05
0.742	86.56
0.745	86.05
0.748	86.28
0.751	86.22
0.754	86.1
0.757	86.33
0.76	85.7
0.763	86.16
0.766	86.39
0.769	86.1
0.772	86.28
0.775	86.22
0.778	85.99
0.781	86.51
0.784	86.39
0.787	86.28
0.79	86.33
0.793	85.93
0.796	86.33
0.799	85.82
0.808	85.87
0.82	85.64
0.832	85.64
0.844	85.64
0.856	85.76
0.868	85.58
0.88	85.47
0.892	85.35
0.904	85.25
0.916	85.41
0.928	85.53
0.94	85.58
0.952	85.47
0.964	85.19
0.976	84.33
0.988	83.64
1	83.3
1.012	84.44
1.024	86.05
1.036	86.74
1.048	87.07
1.06	87.13
1.072	87.19
1.084	87.3
1.096	87.42
1.108	87.42
1.12	87.76
1.132	87.94
1.144	87.94
1.156	87.99
1.168	87.78
1.18	87.66
1.192	87.35
1.204	86.7
1.216	85.84
1.228	84.58
1.24	83.55
1.252	81.78
1.264	78.72
1.276	82.2
1.288	85.32
1.3	85.59
1.312	84.14
1.324	82.69
1.336	80.5
1.348	80.59
1.36	81.45
1.372	81.27
1.384	80.19
1.396	77.39
1.408	71.57
1.42	52.56
1.432	58.35
1.444	60.25
1.456	55.51
1.468	45.73
1.48	50.94
1.492	62.32
1.504	67.12
1.516	70.09
1.528	70.72
1.54	71.4
1.552	71.58
1.564	71.52
1.576	71.18
1.588	71.07
1.6	70.78
1.612	70.82
1.624	70.62
1.636	70.21
1.648	69.68
1.66	68.98
1.672	68.11
1.684	67.12
1.696	66.19
1.708	65.04
1.72	62.36
1.732	58.54
1.744	54.03
1.756	51.46
1.768	52.32
1.78	57.22
1.792	62.42
1.804	64.34
1.816	64.5
1.828	64.22
1.84	63.53
1.852	62.97
1.864	61.75
1.876	60.09
1.888	57.97
1.9	55.24
1.912	52.95
1.924	51.17
1.936	50.03
1.948	49.11
1.96	48.57
1.972	48.65
1.984	47.66
1.996	45.97
2.008	44.98
2.02	44.75
2.032	44.15
2.044	43.18
2.056	42.53
2.068	42.26
2.08	41.92
2.092	39.97
2.104	36.19
2.116	31.08
2.128	26.79
2.14	23.44
2.152	21.42
2.164	21.09
2.176	22.74
2.188	25.94
2.2	28.55
2.212	34.41
2.224	42.45
2.236	47.03
2.248	48.31
2.26	48.26
2.272	47.8
2.284	45.78
2.296	40.98
2.308	35.93
2.32	35.05
2.332	37.98
2.344	40.46
2.356	39.96
2.368	35.97
2.38	30.13
2.392	25.95
2.404	23.17
2.416	21.06
2.428	20
2.44	19.61
2.452	19.49
2.464	19.21
2.476	18.37
2.488	16.65
2.5	15.38
