Name: Montebrasite LiAlPO_4(OH)
Type: Mineral
Class: Phosphates
Particle Size: 125-500um
Sample No.: P-2A
Owner: JPL
Wavelength Range: VNIR-SWIR
Origin: USA, Couth Dakota, Custer County, Custer
Measurement: Hemispherical reflectance
X Units: Wavelength (micrometers)
Y Units: Reflectance (percent)
wavelength	value
0.4	63.78
0.403	64.18
0.406	64.3
0.409	64.69
0.412	64.88
0.415	65.16
0.418	65.39
0.421	65.6
0.424	65.77
0.427	66
0.43	66.21
0.433	66.32
0.436	66.53
0.439	66.71
0.442	66.87
0.445	66.89
0.448	67.16
0.451	67.22
0.454	67.36
0.457	67.46
0.46	67.52
0.463	67.6
0.466	67.69
0.469	67.67
0.472	67.86
0.475	68.04
0.478	67.99
0.481	68.09
0.484	68.16
0.487	68.24
0.49	68.24
0.493	68.25
0.496	68.33
0.499	68.42
0.502	68.42
0.505	68.6
0.508	68.67
0.511	68.72
0.514	68.7
0.517	68.76
0.52	68.98
0.523	68.92
0.526	68.92
0.529	69.02
0.532	68.89
0.535	69.09
0.538	69.03
0.541	69
0.544	69.11
0.547	69.06
0.55	69.23
0.553	69.21
0.556	69.14
0.559	69.26
0.562	69.63
0.565	69.62
0.568	69.52
0.571	69.66
0.574	69.37
0.577	69.53
0.58	69.56
0.583	69.34
0.586	69.41
0.589	69.56
0.592	69.59
0.595	69.52
0.598	69.58
0.601	69.64
0.604	69.72
0.607	69.87
0.61	69.81
0.613	69.72
0.616	69.78
0.619	69.85
0.622	69.82
0.625	69.76
0.628	69.78
0.631	69.79
0.634	69.87
0.637	69.88
0.64	69.82
0.643	69.85
0.646	69.97
0.649	70.01
0.652	69.91
0.655	70.03
0.658	69.94
0.661	69.98
0.664	70.06
0.667	70.01
0.67	70.01
0.673	70.06
0.676	70.13
0.679	70.07
0.682	70.04
0.685	70.14
0.688	70.1
0.691	70.2
0.694	70.16
0.697	70.08
0.7	70.15
0.703	70.16
0.706	70.17
0.709	70.24
0.712	70.27
0.715	70.24
0.718	70.2
0.721	70.13
0.724	70.2
0.727	70.06
0.73	70.22
0.733	70.24
0.736	70.19
0.739	70.23
0.742	70.32
0.745	70.24
0.748	70.09
0.751	70.13
0.754	70.13
0.757	70.23
0.76	70.24
0.763	70.04
0.766	70.1
0.769	70.1
0.772	70.32
0.775	70.19
0.778	70.13
0.781	70.14
0.784	70.19
0.787	70.1
0.79	70.26
0.793	70.12
0.796	70.23
0.799	70.26
0.808	70.37
0.82	70.41
0.832	70.48
0.844	70.63
0.856	70.72
0.868	70.74
0.88	70.66
0.892	70.54
0.904	70.57
0.916	70.47
0.928	70.56
0.94	70.6
0.952	70.59
0.964	70.56
0.976	70.51
0.988	70.5
1	70.37
1.012	70.42
1.024	70.36
1.036	70.5
1.048	70.5
1.06	70.51
1.072	70.55
1.084	70.55
1.096	70.55
1.108	70.52
1.12	70.5
1.132	70.48
1.144	70.53
1.156	70.48
1.168	70.43
1.18	70.47
1.192	70.54
1.204	70.5
1.216	70.31
1.228	70.29
1.24	70.23
1.252	69.94
1.264	69.79
1.276	69.34
1.288	68.96
1.3	69.42
1.312	69.44
1.324	69.23
1.336	68.74
1.348	67.94
1.36	68.57
1.372	68.92
1.384	68.46
1.396	67.64
1.408	65.53
1.42	65.46
1.432	64.46
1.444	62.42
1.456	62.63
1.468	61.05
1.48	60.43
1.492	59.36
1.504	56.65
1.516	53.6
1.528	50.11
1.54	50.9
1.552	55.11
1.564	57.71
1.576	59.1
1.588	60.23
1.6	60.56
1.612	61.16
1.624	61.9
1.636	62.2
1.648	62.47
1.66	62.87
1.672	63.08
1.684	63.16
1.696	63.05
1.708	62.32
1.72	60.65
1.732	59.49
1.744	59.72
1.756	59.27
1.768	59.26
1.78	60.07
1.792	61.28
1.804	61.67
1.816	61.13
1.828	57.29
1.84	50.95
1.852	51.06
1.864	53.79
1.876	54.39
1.888	53.81
1.9	52.86
1.912	52.54
1.924	52.87
1.936	53.02
1.948	52.68
1.96	51.14
1.972	45.56
1.984	36.63
1.996	36.62
2.008	44.81
2.02	49.14
2.032	48.9
2.044	47.39
2.056	46.34
2.068	46.63
2.08	47.21
2.092	46.93
2.104	45.64
2.116	44.38
2.128	42.12
2.14	35.49
2.152	22.79
2.164	12.3
2.176	10.46
2.188	13.14
2.2	17.27
2.212	21.56
2.224	25.09
2.236	28.24
2.248	31.39
2.26	33.67
2.272	35.68
2.284	38.63
2.296	42.29
2.308	44.94
2.32	45.57
2.332	42.91
2.344	34.33
2.356	21.76
2.368	14.6
2.38	18.24
2.392	26.78
2.404	33.54
2.416	36.53
2.428	36.39
2.44	33.95
2.452	30.42
2.464	26.69
2.476	23.63
2.488	21.74
2.5	20.58
