Name: Albite (Feldspar) (K,Na)AlSi_3O_8
Type: Mineral
Class: Silicates
Subclass: Tectosilicates
Particle Size: 0-45um
Sample No.: TS-6A
Owner: JPL
Origin: Unknown.
Measurement: Hemispherical reflectance
X Units: Wavelength (micrometers)
Y Units: Reflectance (percent)
wavelength	value
2.5	72.9487
2.494	73.0873
2.488	73.1259
2.482	73.0645
2.476	73.1749
2.47	73.2583
2.464	73.3616
2.458	73.4931
2.452	73.552
2.446	73.4686
2.44	73.6513
2.434	73.7031
2.428	73.821
2.422	73.9441
2.416	74.1984
2.41	74.3619
2.404	74.4511
2.398	74.5617
2.392	74.7529
2.386	74.8982
2.38	74.9558
2.374	75.0948
2.368	75.1525
2.362	75.2322
2.356	75.2369
2.35	75.2365
2.344	75.238
2.338	75.2473
2.332	75.3563
2.326	75.4766
2.32	75.5193
2.314	75.5972
2.308	75.642
2.302	75.8171
2.296	75.9328
2.29	75.9659
2.284	75.9456
2.278	76.0074
2.272	76.0226
2.266	76.0195
2.26	75.9392
2.254	75.9851
2.248	75.9999
2.242	75.9781
2.236	76.0153
2.23	76.0347
2.224	75.9436
2.218	75.8458
2.212	75.7314
2.206	75.5543
2.2	75.5562
2.194	75.5548
2.188	75.9296
2.182	76.3005
2.176	76.7076
2.17	77.0704
2.164	77.3669
2.158	77.6256
2.152	77.7888
2.146	77.9426
2.14	77.9849
2.134	77.8151
2.128	77.7118
2.122	77.5144
2.116	77.3298
2.11	76.9986
2.104	76.8668
2.098	76.7125
2.092	76.7606
2.086	76.882
2.08	76.9242
2.074	77.0217
2.068	77.0996
2.062	77.153
2.056	77.2067
2.05	77.2257
2.044	77.2276
2.038	77.3174
2.032	77.2906
2.026	77.3448
2.02	77.1609
2.014	77.2282
2.008	77.2061
2.002	77.1904
1.996	77.0901
1.99	77.0058
1.984	76.8761
1.978	76.8414
1.972	76.7042
1.966	76.6371
1.96	76.5218
1.954	76.5189
1.948	76.485
1.942	76.4832
1.936	76.4698
1.93	76.4331
1.924	76.3677
1.918	76.367
1.912	76.4235
1.906	76.543
1.9	76.7875
1.894	77.1099
1.888	77.4412
1.882	77.5993
1.876	77.7246
1.87	77.8453
1.864	77.8238
1.858	77.8894
1.852	77.9059
1.846	77.8998
1.84	77.9021
1.834	77.9363
1.828	77.9448
1.822	77.9218
1.816	77.9281
1.81	77.9434
1.804	77.9827
1.798	77.9492
1.792	77.9383
1.786	77.9158
1.78	77.9228
1.774	77.9454
1.768	77.9333
1.762	77.8424
1.756	77.9058
1.75	77.9259
1.744	77.9341
1.738	77.9299
1.732	77.9891
1.726	77.9637
1.72	77.9913
1.714	77.9654
1.708	77.9857
1.702	77.9255
1.696	77.9514
1.69	77.9308
1.684	77.869
1.678	77.8342
1.672	77.8305
1.666	77.8314
1.66	77.8218
1.654	77.7688
1.648	77.8942
1.642	77.8006
1.636	77.778
1.63	77.7774
1.624	77.8194
1.618	77.7373
1.612	77.7813
1.606	77.7716
1.6	77.7946
1.594	77.7246
1.588	77.7162
1.582	77.7297
1.576	77.7077
1.57	77.6357
1.564	77.5666
1.558	77.5434
1.552	77.4963
1.546	77.5249
1.54	77.5171
1.534	77.4301
1.528	77.3709
1.522	77.3364
1.516	77.2751
1.51	77.2305
1.504	77.1935
1.498	77.1228
1.492	77.0822
1.486	77.0352
1.48	77.0048
1.474	76.9458
1.468	76.9612
1.462	76.8747
1.456	76.7934
1.45	76.8218
1.444	76.6566
1.438	76.6295
1.432	76.6198
1.426	76.4362
1.42	76.1507
1.414	75.7746
1.408	75.8192
1.402	75.9311
1.396	76.2714
1.39	76.5457
1.384	76.6269
1.378	76.6233
1.372	76.5017
1.366	76.5364
1.36	76.5515
1.354	76.5418
1.348	76.4457
1.342	76.4765
1.336	76.3591
1.33	76.3444
1.324	76.4373
1.318	76.3556
1.312	76.3515
1.306	76.3382
1.3	76.3596
1.294	76.3044
1.288	76.2649
1.282	76.2183
1.276	76.2434
1.27	76.2154
1.264	76.1925
1.258	76.2189
1.252	76.208
1.246	76.2048
1.24	76.1971
1.234	76.1487
1.228	76.1988
1.222	76.1794
1.216	76.2517
1.21	76.1297
1.204	76.2539
1.198	76.1909
1.192	76.211
1.186	76.2598
1.18	76.2497
1.174	76.3232
1.168	76.2834
1.162	76.248
1.156	76.2544
1.15	76.319
1.144	76.3418
1.138	76.3237
1.132	76.351
1.126	76.3929
1.12	76.4263
1.114	76.3741
1.108	76.4018
1.102	76.4269
1.096	76.518
1.09	76.5161
1.084	76.4536
1.078	76.4667
1.072	76.4204
1.066	76.5851
1.06	76.4417
1.054	76.5301
1.048	76.5732
1.042	76.5934
1.036	76.5502
1.03	76.5188
1.024	76.5323
1.018	76.5079
1.012	76.6086
1.006	76.5461
1	76.5689
0.994	76.6091
0.988	76.668
0.982	76.6641
0.976	76.6151
0.97	76.6122
0.964	76.6279
0.958	76.6263
0.952	76.6628
0.946	76.6615
0.94	76.6575
0.934	76.7502
0.928	76.6897
0.922	76.666
0.916	76.7141
0.91	76.7718
0.904	76.714
0.898	76.7327
0.892	76.6931
0.886	76.651
0.88	76.6781
0.874	76.6456
0.868	76.653
0.862	76.6816
0.856	76.8057
0.85	76.7554
0.844	76.7737
0.838	76.757
0.832	76.7981
0.826	76.8209
0.82	76.7838
0.814	76.8427
0.808	76.839
0.802	76.8439
0.796	76.721
0.79	76.7221
0.784	76.647
0.778	76.5554
0.772	76.5551
0.766	76.5505
0.76	76.5057
0.754	76.4997
0.748	76.4332
0.742	76.3936
0.736	76.3231
0.73	76.2862
0.724	76.2255
0.718	76.1961
0.712	76.1392
0.706	76.1129
0.7	76.0456
0.694	76.0027
0.688	75.9939
0.682	75.9398
0.676	75.901
0.67	75.5414
0.664	75.49
0.658	75.4851
0.652	75.4275
0.646	75.3952
0.64	75.3731
0.634	75.3439
0.628	75.4485
0.622	75.5659
0.616	75.5221
0.61	75.4945
0.604	75.453
0.598	75.429
0.592	75.4335
0.586	75.3736
0.58	75.285
0.574	75.2037
0.568	75.13
0.562	75.044
0.556	74.9231
0.55	74.8174
0.544	74.6933
0.538	74.5724
0.532	74.4244
0.526	74.2754
0.52	74.0823
0.514	73.9039
0.508	73.6718
0.502	73.452
0.496	73.2128
0.49	72.9664
0.484	72.7077
0.478	72.4489
0.472	72.2271
0.466	72.0083
0.46	71.771
0.454	71.4555
0.448	71.0965
0.442	70.6797
0.436	70.1895
0.43	69.6466
0.424	69.1093
0.418	68.6439
0.412	68.2026
0.406	67.7528
0.4	67.2751
