Name: Red-orange sandy loam
Type: Soils
Class: Entisol
Particle Size: see additional information
Sample No.: fgg033
Owner: University of NSW
Origin: Fowlers Gap, western New South Wales, Australia
Description: Parent material consists of aeolian silts/clays and sandstone debris.
Measurement: Directional hemispherical reflectance
X Units: Wavelength (micrometers)
Y Units: Reflectance (percent)
wavelength	value
14.013	1.1895
13.79	1.5757
13.573	1.6653
13.363	1.536
13.16	1.8007
12.962	1.7944
12.771	1.9493
12.585	1.6053
12.404	1.3951
12.228	1.5522
12.058	1.96
11.892	2.1774
11.73	2.6009
11.573	2.4868
11.42	2.4467
11.271	2.4956
11.126	2.5098
10.985	2.4788
10.847	2.1136
10.713	2.2507
10.581	2.2933
10.453	2.5657
10.328	2.8072
10.206	3.2378
10.087	3.6679
9.971	4.4524
9.857	4.5773
9.746	5.2442
9.637	6.121
9.531	6.6911
9.427	7.1347
9.325	7.1576
9.226	6.4023
9.128	5.6425
9.033	5.0498
8.939	5.3072
8.848	5.8956
8.758	5.6482
8.67	5.0259
8.584	4.9977
8.5	5.3998
8.417	5.7183
8.336	6.5045
8.256	7.4104
8.178	7.5937
8.101	5.9519
8.026	4.3518
7.952	3.3009
7.88	2.5666
7.809	2.1401
7.739	2.2608
7.67	2.1824
7.602	2.0447
7.536	2.1503
7.471	2.2723
7.407	2.3027
7.344	2.3987
7.282	2.4813
7.221	2.6819
7.161	2.895
7.103	2.8488
7.045	2.9185
6.988	3.1634
6.932	3.331
6.876	3.4962
6.822	3.6181
6.769	3.7094
6.716	3.929
6.664	4.1092
6.613	4.0557
6.563	3.9495
6.514	4.1124
6.465	4.4046
6.417	4.546
6.37	4.176
6.323	3.7637
6.277	3.15
6.232	2.7568
6.187	2.2329
6.143	1.9101
6.1	1.7918
6.057	1.9001
6.015	2.0802
5.973	2.2449
5.932	2.731
5.892	3.6148
5.852	4.6295
5.813	5.5997
5.774	6.6471
5.735	7.5237
5.698	8.0126
5.66	7.8494
5.623	7.2421
5.587	6.983
5.551	7.1366
5.516	7.5108
5.481	7.8655
5.446	8.3924
5.412	7.9537
5.378	6.7713
5.345	6.5441
5.312	6.8517
5.28	7.4279
5.248	8.4369
5.216	9.5399
5.185	10.0745
5.154	10.1673
5.123	10.2374
5.093	10.2767
5.063	10.1561
5.034	10.3383
5.005	10.4837
4.976	11.1675
4.947	12.3961
4.919	13.3207
4.891	15.4542
4.864	17.1034
4.837	17.9874
4.81	18.581
4.783	19.0272
4.757	19.513
4.731	19.7099
4.705	19.703
4.68	19.5011
4.654	20.0247
4.629	20.8539
4.605	21.2818
4.58	21.6629
4.556	21.8704
4.532	21.7104
4.509	21.1333
4.485	20.8985
4.462	20.8837
4.439	21.5426
4.416	22.1589
4.394	22.9464
4.372	23.7164
4.35	24.4755
4.328	24.8778
4.306	25.3015
4.285	25.4774
4.264	25.7108
4.243	26.4566
4.222	26.7738
4.202	27.1303
4.181	27.6263
4.161	28.0732
4.141	28.5295
4.122	29.0899
4.102	29.496
4.083	29.8989
4.063	30.2955
4.044	30.581
4.026	30.7476
4.007	30.9542
3.988	31.2259
3.97	31.3309
3.952	31.4916
3.934	31.5618
3.916	31.5267
3.898	31.4959
3.881	31.3164
3.864	30.9574
3.846	30.7947
3.829	30.5069
3.812	30.2126
3.796	29.9186
3.779	29.3826
3.763	28.8041
3.746	28.259
3.73	27.7955
3.714	27.2075
3.698	26.6919
3.682	26.2205
3.667	25.5651
3.651	25.095
3.636	24.4072
3.621	23.8921
3.606	23.1575
3.591	22.4667
3.576	21.7049
3.561	21.0222
3.546	20.2959
3.532	19.6034
3.518	18.5265
3.503	17.3822
3.489	17.1295
3.475	16.4727
3.461	15.9966
3.447	15.1472
3.434	14.2361
3.42	13.3188
3.407	12.9186
3.393	12.542
3.38	11.8476
3.367	11.4175
3.354	11.0924
3.341	10.5175
3.328	9.9006
3.315	9.3623
3.302	8.822
3.29	8.2697
3.277	7.8411
3.265	7.446
3.253	6.9402
3.24	6.5807
3.228	6.1747
3.216	5.8624
3.204	5.4632
3.193	5.0348
3.181	4.6993
3.169	4.477
3.158	4.2085
3.146	3.9886
3.135	3.8103
3.123	3.3709
3.112	3.2843
3.101	3.0531
3.09	3.1797
3.079	3.0389
3.068	3.0145
3.057	3.0436
3.046	2.7653
3.036	2.8555
3.025	2.7011
3.014	2.7609
3.004	2.6457
2.994	2.4112
2.983	2.4803
2.973	2.3497
2.963	2.4613
2.953	2.2369
2.943	2.2675
2.933	2.1077
2.923	2.2082
2.913	2.3525
2.903	2.2383
2.893	2.3728
2.884	2.4522
2.874	2.5591
2.865	2.3705
2.855	2.6902
2.846	2.6252
2.836	2.6272
2.827	2.627
2.818	2.696
2.809	2.468
2.8	2.5528
2.791	2.4769
2.782	1.97
2.773	1.9707
2.764	1.5139
2.755	1.5601
2.746	1.89
2.737	1.8455
2.729	2.361
2.72	2.8839
2.712	2.7526
2.703	2.1952
2.695	5.7028
2.686	12.7237
2.678	18.4631
2.67	22.0821
2.662	24.8912
2.654	26.726
2.645	28.2699
2.637	29.5954
2.629	30.5059
2.621	31.2529
2.613	31.9563
2.605	32.3624
2.598	32.8219
2.59	33.2639
2.582	33.5072
2.574	33.8556
2.567	34.1376
2.559	34.7144
2.552	34.8894
2.544	34.944
2.537	35.1777
2.529	35.3134
2.522	35.6386
2.515	35.8317
2.507	36.1138
2.5	36.3625
2.493	36.7599
2.486	37.233
2.478	37.7978
2.471	38.259
2.464	38.6069
2.457	39.2359
2.45	39.395
2.443	39.777
2.437	40.5369
2.43	41.4104
2.423	42.1612
2.416	42.603
2.409	43.2456
2.403	43.3544
2.396	43.5881
2.389	43.6183
2.383	43.486
2.376	44.2985
2.37	44.9657
2.363	45.2672
2.357	45.4975
2.35	46.1219
2.344	46.6361
2.338	47.307
2.331	47.8482
2.325	48.404
2.319	48.734
2.313	49.4017
2.306	49.8361
2.3	50.3517
2.294	50.6219
2.288	50.8504
2.282	51.3583
2.276	51.4984
2.27	51.6676
2.264	51.6294
2.258	51.3603
2.252	50.9612
2.247	50.7974
2.241	50.3439
2.235	50.2305
2.229	50.2833
2.223	49.5891
2.218	48.7001
2.212	45.5808
2.206	45.1498
2.201	47.7505
2.195	48.6204
2.189	49.5472
2.184	50.3111
2.179	50.8995
2.173	51.4136
2.168	51.8162
2.162	51.9013
2.157	52.937
2.151	53.5989
2.146	54.8552
2.141	55.3814
2.135	55.9182
2.13	56.0804
2.125	55.8805
2.12	56.0912
2.115	56.1216
2.109	55.8506
2.104	56.1866
2.099	55.9933
2.094	56.0774
2.089	55.9712
2.084	55.9388
2.079	56.0396
2.074	55.7474
2.069	55.8093
2.064	56.0219
2.059	55.5666
2.054	55.3774
2.049	55.2475
2.045	55.3743
2.04	54.8854
2.035	54.6673
2.03	54.5266
2.025	53.9062
2.021	53.806
2.016	53.4112
2.011	52.9401
2.007	52.5646
2.002	52.27
