Name: Azurite Cu_3(CO_3)_2(OH)_2
Type: Mineral
Class: Carbonates
Particle Size: 45-125um
Sample No.: C-12A
Owner: JPL
Wavelength Range: VNIR-SWIR
Origin: USA, California, San Bernadino County, Near Valley Wells
Measurement: Hemispherical reflectance
X Units: Wavelength (micrometers)
Y Units: Reflectance (percent)
wavelength	value
0.4	10.6
0.403	11.13
0.406	11.78
0.409	12.69
0.412	13.27
0.415	14.02
0.418	14.42
0.421	15.26
0.424	15.77
0.427	16.18
0.43	16.7
0.433	17.19
0.436	18.03
0.439	18.47
0.442	18.93
0.445	19.58
0.448	20.02
0.451	20.61
0.454	21.05
0.457	21.4
0.46	21.53
0.463	22.04
0.466	22.25
0.469	22.61
0.472	22.74
0.475	23.27
0.478	23.31
0.481	23.6
0.484	23.93
0.487	24.06
0.49	24.5
0.493	24.63
0.496	25.09
0.499	25.42
0.502	25.54
0.505	25.79
0.508	25.92
0.511	26.09
0.514	26.26
0.517	26.45
0.52	26.55
0.523	26.48
0.526	26.36
0.529	26.09
0.532	26.03
0.535	25.85
0.538	25.63
0.541	25.38
0.544	25.05
0.547	24.75
0.55	24.31
0.553	23.74
0.556	23.31
0.559	22.84
0.562	22.51
0.565	21.84
0.568	21.13
0.571	20.37
0.574	19.63
0.577	18.82
0.58	18.21
0.583	17.27
0.586	16.25
0.589	15.46
0.592	14.74
0.595	14.16
0.598	13.48
0.601	12.95
0.604	12.27
0.607	11.94
0.61	11.47
0.613	10.75
0.616	10.43
0.619	10.07
0.622	9.76
0.625	9.35
0.628	8.99
0.631	8.78
0.634	8.32
0.637	7.93
0.64	7.61
0.643	7.45
0.646	7.18
0.649	6.95
0.652	6.68
0.655	6.49
0.658	6.43
0.661	6.2
0.664	6.15
0.667	5.87
0.67	5.63
0.673	5.4
0.676	5.06
0.679	4.96
0.682	4.76
0.685	4.71
0.688	4.65
0.691	4.6
0.694	4.53
0.697	4.37
0.7	4.39
0.703	4.25
0.706	4.24
0.709	4.25
0.712	4.42
0.715	4.41
0.718	4.36
0.721	4.37
0.724	4.52
0.727	4.46
0.73	4.6
0.733	4.58
0.736	4.48
0.739	4.47
0.742	4.41
0.745	4.47
0.748	4.46
0.751	4.3
0.754	4.23
0.757	4.07
0.76	4.13
0.763	4.01
0.766	4.12
0.769	4.12
0.772	4.13
0.775	4.12
0.778	4.18
0.781	4.28
0.784	4.22
0.787	4.29
0.79	4.28
0.793	4.39
0.796	4.47
0.799	4.68
0.808	4.95
0.82	5.02
0.832	5.2
0.844	5.45
0.856	5.57
0.868	5.89
0.88	6.13
0.892	6.42
0.904	6.71
0.916	7.24
0.928	7.72
0.94	8.33
0.952	8.99
0.964	9.58
0.976	10.41
0.988	11.19
1	11.91
1.012	12.73
1.024	13.4
1.036	14.22
1.048	14.9
1.06	15.66
1.072	16.26
1.084	16.82
1.096	17.36
1.108	17.97
1.12	18.44
1.132	18.89
1.144	19.27
1.156	19.75
1.168	20.19
1.18	20.62
1.192	21.15
1.204	21.56
1.216	21.97
1.228	22.49
1.24	22.84
1.252	23.29
1.264	23.76
1.276	24.28
1.288	24.75
1.3	25.11
1.312	25.55
1.324	25.98
1.336	26.32
1.348	26.71
1.36	27.09
1.372	27.16
1.384	26.91
1.396	25.8
1.408	23.24
1.42	24.94
1.432	26.32
1.444	27.21
1.456	27.8
1.468	28.28
1.48	28.82
1.492	29.25
1.504	30.4
1.516	31.55
1.528	32.41
1.54	33.23
1.552	34.03
1.564	34.8
1.576	35.42
1.588	36.02
1.6	36.79
1.612	37.44
1.624	38.14
1.636	38.84
1.648	39.49
1.66	40.09
1.672	40.57
1.684	40.76
1.696	41.37
1.708	41.96
1.72	42.26
1.732	42.57
1.744	43.1
1.756	43.38
1.768	43.87
1.78	44.25
1.792	44.59
1.804	44.97
1.816	45.42
1.828	45.61
1.84	45.64
1.852	45.38
1.864	43.77
1.876	39.54
1.888	32.98
1.9	26.57
1.912	24.63
1.924	25.8
1.936	27.25
1.948	28.62
1.96	29.88
1.972	31.21
1.984	32.82
1.996	34.42
2.008	35.75
2.02	36.87
2.032	37.9
2.044	38.71
2.056	39.53
2.068	40.45
2.08	41.2
2.092	41.69
2.104	42.12
2.116	42.59
2.128	42.8
2.14	42.64
2.152	41.96
2.164	41.16
2.176	40.26
2.188	38.8
2.2	36.96
2.212	35.48
2.224	34.11
2.236	31.54
2.248	28.55
2.26	26.15
2.272	24.75
2.284	24.99
2.296	26.87
2.308	28.52
2.32	28.28
2.332	26.13
2.344	23.79
2.356	23.4
2.368	24.13
2.38	24.18
2.392	23.69
2.404	23.35
2.416	23.11
2.428	22.87
2.44	22.49
2.452	22.05
2.464	21.68
2.476	21.21
2.488	20.93
2.5	20.65
