Name: Epidote Ca_2(Al,Fe^3+)_3O.SiO_4.Si_2O_7.OH
Type: Mineral
Class: Silicates
Subclass: Sorosilicate
Particle Size: 0-45um
Sample No.: SS-1A
Owner: JPL
Origin: Mexico, Baja California Norte, Valle De La Trinidad.
Measurement: Hemispherical reflectance
X Units: Wavelength (micrometers)
Y Units: Reflectance (percent)
wavelength	value
2.5	49.6414
2.494	49.6435
2.488	49.6929
2.482	49.8012
2.476	49.8183
2.47	49.8505
2.464	49.9799
2.458	50.1388
2.452	50.2817
2.446	50.3215
2.44	50.4869
2.434	50.4777
2.428	50.588
2.422	50.5949
2.416	50.6039
2.41	50.4941
2.404	50.4294
2.398	50.3824
2.392	50.2422
2.386	50.1271
2.38	49.8213
2.374	49.3055
2.368	48.3639
2.362	46.8781
2.356	44.874
2.35	42.7167
2.344	41.0258
2.338	40.3131
2.332	40.4894
2.326	41.5376
2.32	43.0257
2.314	44.6013
2.308	46.0047
2.302	47.1756
2.296	48.0288
2.29	48.6377
2.284	49.1125
2.278	49.355
2.272	49.3972
2.266	49.2245
2.26	48.8488
2.254	48.6347
2.248	48.9092
2.242	49.609
2.236	50.3112
2.23	50.8401
2.224	51.0135
2.218	51.2239
2.212	51.4406
2.206	51.5603
2.2	51.6129
2.194	51.7508
2.188	51.8132
2.182	51.9045
2.176	52.1006
2.17	52.1744
2.164	52.3059
2.158	52.3722
2.152	52.4544
2.146	52.4491
2.14	52.5119
2.134	52.4712
2.128	52.2713
2.122	52.215
2.116	52.0618
2.11	51.9251
2.104	51.8035
2.098	51.7242
2.092	51.6959
2.086	51.7373
2.08	51.7479
2.074	51.8048
2.068	51.8334
2.062	51.9114
2.056	51.9224
2.05	51.9987
2.044	51.9508
2.038	51.9503
2.032	51.9895
2.026	51.9754
2.02	51.9518
2.014	51.9084
2.008	51.9195
2.002	51.8879
1.996	51.9073
1.99	51.7919
1.984	51.7649
1.978	51.6366
1.972	51.6714
1.966	51.5885
1.96	51.5216
1.954	51.4162
1.948	51.5149
1.942	51.4838
1.936	51.6049
1.93	51.5328
1.924	51.5677
1.918	51.5194
1.912	51.5738
1.906	51.5562
1.9	51.6807
1.894	51.7773
1.888	51.8631
1.882	51.8873
1.876	51.8973
1.87	51.8304
1.864	51.8753
1.858	51.9387
1.852	51.9329
1.846	51.8379
1.84	51.8093
1.834	51.6398
1.828	51.6998
1.822	51.7826
1.816	51.8447
1.81	51.7962
1.804	51.8727
1.798	51.7722
1.792	51.8191
1.786	51.7664
1.78	51.7422
1.774	51.7257
1.768	51.6649
1.762	51.699
1.756	51.6789
1.75	51.6504
1.744	51.7138
1.738	51.7172
1.732	51.6436
1.726	51.6976
1.72	51.6225
1.714	51.6222
1.708	51.5084
1.702	51.5292
1.696	51.5188
1.69	51.5292
1.684	51.4316
1.678	51.4018
1.672	51.3894
1.666	51.381
1.66	51.3838
1.654	51.3133
1.648	51.3924
1.642	51.4152
1.636	51.2539
1.63	51.2805
1.624	51.2902
1.618	51.29
1.612	51.3055
1.606	51.2704
1.6	51.2052
1.594	51.1637
1.588	51.0942
1.582	51.1136
1.576	51.0393
1.57	50.9106
1.564	50.9098
1.558	50.768
1.552	50.6942
1.546	50.7167
1.54	50.6797
1.534	50.7734
1.528	50.8239
1.522	50.8971
1.516	50.9664
1.51	51.0289
1.504	51.0599
1.498	51.1436
1.492	51.123
1.486	51.1653
1.48	51.1962
1.474	51.1517
1.468	51.1263
1.462	51.2088
1.456	51.1373
1.45	51.1616
1.444	51.1454
1.438	51.1516
1.432	51.1553
1.426	51.0828
1.42	51.0429
1.414	51.0076
1.408	50.9813
1.402	51.0515
1.396	51.0757
1.39	51.0816
1.384	51.0573
1.378	51.1117
1.372	51.0939
1.366	51.1255
1.36	50.9602
1.354	50.9382
1.348	50.8957
1.342	50.7951
1.336	50.8307
1.33	50.811
1.324	50.8152
1.318	50.654
1.312	50.6875
1.306	50.6074
1.3	50.5826
1.294	50.5638
1.288	50.4653
1.282	50.5228
1.276	50.4836
1.27	50.4161
1.264	50.3432
1.258	50.2684
1.252	50.2545
1.246	50.1114
1.24	50.0687
1.234	49.9813
1.228	49.9181
1.222	49.8074
1.216	49.7485
1.21	49.5662
1.204	49.5355
1.198	49.4037
1.192	49.2918
1.186	49.1644
1.18	49.053
1.174	48.9475
1.168	48.8057
1.162	48.6732
1.156	48.6172
1.15	48.5748
1.144	48.4127
1.138	48.3303
1.132	48.1672
1.126	48.0883
1.12	48.0082
1.114	47.876
1.108	47.7617
1.102	47.6748
1.096	47.6063
1.09	47.5479
1.084	47.42
1.078	47.3418
1.072	47.3812
1.066	47.29
1.06	47.2767
1.054	47.2778
1.048	47.2484
1.042	47.2952
1.036	47.2913
1.03	47.234
1.024	47.2538
1.018	47.3178
1.012	47.2636
1.006	47.3321
1	47.3437
0.994	47.3754
0.988	47.4296
0.982	47.5014
0.976	47.4768
0.97	47.4987
0.964	47.5157
0.958	47.4928
0.952	47.5692
0.946	47.505
0.94	47.5984
0.934	47.5285
0.928	47.5163
0.922	47.4521
0.916	47.3967
0.91	47.4276
0.904	47.3401
0.898	47.2751
0.892	47.2022
0.886	47.0663
0.88	46.9556
0.874	46.8626
0.868	46.7337
0.862	46.6241
0.856	46.5321
0.85	46.4278
0.844	46.3535
0.838	46.2501
0.832	46.1695
0.826	46.1391
0.82	46.0945
0.814	46.077
0.808	46.0744
0.802	46.0768
0.796	45.993
0.79	45.9713
0.784	45.96
0.778	45.8976
0.772	45.8711
0.766	45.8139
0.76	45.7407
0.754	45.6548
0.748	45.583
0.742	45.4843
0.736	45.3826
0.73	45.2478
0.724	45.1147
0.718	44.9898
0.712	44.8291
0.706	44.6723
0.7	44.4708
0.694	44.2926
0.688	44.0836
0.682	43.8757
0.676	43.6611
0.67	43.4286
0.664	43.1987
0.658	42.9499
0.652	42.71
0.646	42.4839
0.64	42.2659
0.634	42.0578
0.628	41.8675
0.622	41.7072
0.616	41.5771
0.61	41.4573
0.604	41.3451
0.598	41.2883
0.592	41.2362
0.586	41.164
0.58	41.0959
0.574	40.9965
0.568	40.9132
0.562	40.7905
0.556	40.6631
0.55	40.5572
0.544	40.4029
0.538	40.1741
0.532	39.8663
0.526	39.5196
0.52	39.1036
0.514	38.5988
0.508	37.9398
0.502	37.1518
0.496	36.092
0.49	34.6927
0.484	32.805
0.478	30.8751
0.472	29.7572
0.466	30.1514
0.46	30.0852
0.454	29.1568
0.448	30.3679
0.442	30.226
0.436	29.0331
0.43	26.9811
0.424	24.7486
0.418	22.5297
0.412	20.5495
0.406	19.136
0.4	18.6358
