Name: Colemanite Ca_2B_6O_11.5H_2O
Type: Mineral
Class: Borates
Particle Size: 45-125um
Sample No.: B-1A
Owner: JPL
Origin: USA, California, Kern County, Boron.
Measurement: Hemispherical reflectance
X Units: Wavelength (micrometers)
Y Units: Reflectance (percent)
wavelength	value
2.5	12.6791
2.494	12.4447
2.488	12.6397
2.482	12.5767
2.476	12.6683
2.47	12.5675
2.464	12.4959
2.458	12.7145
2.452	12.6721
2.446	12.8521
2.44	13.0937
2.434	13.3106
2.428	13.6003
2.422	13.9756
2.416	14.1838
2.41	14.735
2.404	15.2793
2.398	16.1447
2.392	16.9724
2.386	17.8699
2.38	18.9649
2.374	19.9338
2.368	20.9749
2.362	21.9579
2.356	22.9244
2.35	23.7826
2.344	24.5189
2.338	25.0934
2.332	25.658
2.326	26.1588
2.32	26.588
2.314	26.9794
2.308	27.1668
2.302	27.2827
2.296	27.2961
2.29	27.2954
2.284	27.0615
2.278	26.8053
2.272	26.4324
2.266	25.983
2.26	25.6983
2.254	25.2953
2.248	24.6441
2.242	23.8918
2.236	23.0597
2.23	22.2757
2.224	21.562
2.218	20.8159
2.212	20.107
2.206	19.4008
2.2	19.2918
2.194	19.6689
2.188	20.2643
2.182	20.6969
2.176	21.077
2.17	21.2404
2.164	21.7087
2.158	22.3727
2.152	23.2725
2.146	23.9805
2.14	24.0186
2.134	23.3086
2.128	21.8507
2.122	19.9912
2.116	18.1176
2.11	16.8644
2.104	16.8008
2.098	18.2656
2.092	21.4422
2.086	24.8588
2.08	26.8812
2.074	27.7785
2.068	28.1524
2.062	28.3452
2.056	28.5259
2.05	28.5322
2.044	28.4984
2.038	28.3783
2.032	28.2171
2.026	27.9623
2.02	27.8433
2.014	27.5433
2.008	27.2233
2.002	26.8677
1.996	26.5838
1.99	26.3783
1.984	26.1406
1.978	25.8035
1.972	25.4772
1.966	25.1483
1.96	25.1216
1.954	25.4215
1.948	26.1301
1.942	27.3927
1.936	29.0907
1.93	30.9808
1.924	32.857
1.918	34.6218
1.912	36.1876
1.906	37.6024
1.9	38.9074
1.894	39.9032
1.888	40.7686
1.882	41.4782
1.876	42.0918
1.87	42.5823
1.864	43.0329
1.858	43.3925
1.852	43.471
1.846	43.507
1.84	43.564
1.834	43.5048
1.828	43.4548
1.822	43.3454
1.816	43.3128
1.81	43.3408
1.804	43.3914
1.798	43.3162
1.792	43.3826
1.786	43.3469
1.78	43.3339
1.774	43.319
1.768	43.352
1.762	43.4428
1.756	43.5864
1.75	43.7446
1.744	43.9092
1.738	43.9756
1.732	44.0783
1.726	43.9376
1.72	43.7934
1.714	43.5192
1.708	43.2006
1.702	42.8828
1.696	42.53
1.69	42.3569
1.684	42.2351
1.678	42.0427
1.672	42.0144
1.666	41.8817
1.66	41.9854
1.654	42.2078
1.648	42.5401
1.642	43.1346
1.636	43.7129
1.63	44.4072
1.624	45.2254
1.618	46.1079
1.612	46.953
1.606	47.7504
1.6	48.3136
1.594	48.7983
1.588	49.0935
1.582	49.1465
1.576	48.9613
1.57	48.71
1.564	48.6667
1.558	48.6268
1.552	48.8209
1.546	49.3629
1.54	50.2455
1.534	51.2272
1.528	52.0865
1.522	52.9015
1.516	53.7537
1.51	54.5262
1.504	55.06
1.498	55.5294
1.492	55.9395
1.486	56.2929
1.48	56.3456
1.474	56.0717
1.468	55.299
1.462	54.261
1.456	53.2558
1.45	52.3324
1.444	52.0557
1.438	52.5832
1.432	49.8608
1.426	40.6177
1.42	38.3942
1.414	44.8814
1.408	52.9171
1.402	59.25
1.396	64.3917
1.39	67.3605
1.384	69.7843
1.378	71.8034
1.372	73.1747
1.366	74.2457
1.36	74.9722
1.354	75.6949
1.348	76.0529
1.342	76.2128
1.336	76.4342
1.33	77.18
1.324	77.8828
1.318	78.5995
1.312	79.3772
1.306	80.0331
1.3	80.4858
1.294	80.8752
1.288	81.2332
1.282	81.587
1.276	81.7717
1.27	82.0205
1.264	82.1273
1.258	82.248
1.252	82.2595
1.246	82.2121
1.24	82.2734
1.234	82.2161
1.228	82.0717
1.222	82.3578
1.216	83.0962
1.21	83.4294
1.204	83.6576
1.198	83.6877
1.192	83.7159
1.186	83.7218
1.18	83.8465
1.174	84.3407
1.168	84.9484
1.162	85.5044
1.156	86.0224
1.15	86.4913
1.144	86.9101
1.138	87.2812
1.132	87.5346
1.126	87.6218
1.12	87.7313
1.114	87.8071
1.108	87.9182
1.102	88.0126
1.096	88.1698
1.09	88.2583
1.084	88.3392
1.078	88.4263
1.072	88.5002
1.066	88.6012
1.06	88.6853
1.054	88.8076
1.048	88.8032
1.042	88.723
1.036	88.7578
1.03	88.7597
1.024	88.6752
1.018	88.5696
1.012	88.4291
1.006	88.2185
1	87.9406
0.994	87.5428
0.988	87.1153
0.982	86.2735
0.976	84.6425
0.97	83.8507
0.964	85.315
0.958	87.4641
0.952	88.6711
0.946	89.1568
0.94	89.5481
0.934	89.7629
0.928	89.909
0.922	90.0692
0.916	90.1773
0.91	90.2661
0.904	90.3818
0.898	90.4246
0.892	90.4075
0.886	90.4964
0.88	90.5586
0.874	90.5989
0.868	90.5863
0.862	90.6227
0.856	90.7194
0.85	90.7306
0.844	90.8746
0.838	90.9316
0.832	90.9236
0.826	90.9462
0.82	90.9524
0.814	90.9529
0.808	90.9616
0.802	90.986
0.796	90.923
0.79	90.8321
0.784	90.8792
0.778	90.7865
0.772	90.688
0.766	90.5867
0.76	90.511
0.754	90.4177
0.748	90.2807
0.742	90.2668
0.736	90.4303
0.73	90.5045
0.724	90.5139
0.718	90.5441
0.712	90.5113
0.706	90.4851
0.7	90.4795
0.694	90.4565
0.688	90.4368
0.682	90.3923
0.676	90.3777
0.67	90.3267
0.664	90.3033
0.658	90.2436
0.652	90.2028
0.646	90.1679
0.64	90.17
0.634	90.1402
0.628	90.0565
0.622	90.0121
0.616	89.9504
0.61	89.9015
0.604	89.8329
0.598	89.8182
0.592	89.8014
0.586	89.7185
0.58	89.6337
0.574	89.5335
0.568	89.44
0.562	89.329
0.556	89.2188
0.55	89.0822
0.544	88.9129
0.538	88.7373
0.532	88.5456
0.526	88.34
0.52	88.0845
0.514	87.8257
0.508	87.5198
0.502	87.1589
0.496	86.8222
0.49	86.4596
0.484	86.0937
0.478	85.6943
0.472	85.3212
0.466	84.9579
0.46	84.6228
0.454	84.2863
0.448	83.9571
0.442	83.6556
0.436	83.3875
0.43	83.1334
0.424	82.8873
0.418	82.6347
0.412	82.3715
0.406	82.1087
0.4	81.7875
