Name: Alunite KAl_3(SO_4)_2(OH)_6
Type: Mineral
Class: Sulfates
Particle Size: 125-500um
Sample No.: SO-4A
Owner: JPL
Origin: USA, Utah.
Measurement: Hemispherical reflectance
X Units: Wavelength (micrometers)
Y Units: Reflectance (percent)
wavelength	value
2.5	4.71863
2.494	5.69437
2.488	6.76811
2.482	7.20496
2.476	7.25569
2.47	6.87668
2.464	6.84927
2.458	7.11035
2.452	7.39267
2.446	7.63043
2.44	7.36682
2.434	7.06119
2.428	7.04269
2.422	7.54022
2.416	8.24233
2.41	9.07609
2.404	9.78862
2.398	10.3536
2.392	11.2888
2.386	12.7942
2.38	15.0561
2.374	17.6273
2.368	19.8682
2.362	21.5021
2.356	22.3897
2.35	22.5271
2.344	21.8741
2.338	20.5111
2.332	18.6896
2.326	16.847
2.32	16.122
2.314	16.9012
2.308	19.4466
2.302	22.6777
2.296	25.3413
2.29	27.0032
2.284	27.9729
2.278	28.4938
2.272	28.9248
2.266	29.1537
2.26	29.3326
2.254	29.3271
2.248	29.2731
2.242	28.8232
2.236	27.8589
2.23	26.0603
2.224	22.6248
2.218	17.4687
2.212	13.0364
2.206	11.8025
2.2	12.6795
2.194	12.0286
2.188	9.97522
2.182	8.72158
2.176	8.10153
2.17	7.96658
2.164	7.86825
2.158	7.83524
2.152	8.32748
2.146	9.23618
2.14	10.0824
2.134	11.0578
2.128	12.206
2.122	13.9488
2.116	16.2609
2.11	18.4118
2.104	20.2662
2.098	21.5701
2.092	22.5751
2.086	23.1666
2.08	23.4551
2.074	23.4143
2.068	23.3232
2.062	23.3654
2.056	23.6392
2.05	24.1579
2.044	24.7033
2.038	25.1249
2.032	25.5782
2.026	25.8898
2.02	25.9388
2.014	25.7253
2.008	25.9108
2.002	26.6279
1.996	27.6674
1.99	28.717
1.984	29.4837
1.978	29.7848
1.972	29.6717
1.966	29.4722
1.96	29.5968
1.954	29.9966
1.948	30.6137
1.942	31.2066
1.936	31.6961
1.93	32.078
1.924	32.8015
1.918	33.8214
1.912	35.1765
1.906	36.6571
1.9	38.416
1.894	39.95
1.888	41.2997
1.882	42.6124
1.876	43.7409
1.87	44.763
1.864	45.5994
1.858	46.2213
1.852	46.6451
1.846	47.028
1.84	47.3701
1.834	47.6645
1.828	47.9481
1.822	48.1484
1.816	48.1335
1.81	47.941
1.804	47.5185
1.798	46.4926
1.792	43.7848
1.786	39.5501
1.78	36.1785
1.774	34.0557
1.768	32.3642
1.762	32.884
1.756	34.0403
1.75	35.5636
1.744	37.9651
1.738	40.6928
1.732	43.056
1.726	45.4378
1.72	47.317
1.714	48.6019
1.708	49.4844
1.702	50.2212
1.696	50.7084
1.69	51.2582
1.684	51.9051
1.678	52.4847
1.672	53.0507
1.666	53.6744
1.66	54.2016
1.654	54.7493
1.648	55.0057
1.642	55.3737
1.636	55.6302
1.63	55.9579
1.624	56.0612
1.618	56.1951
1.612	56.1879
1.606	56.3699
1.6	56.4363
1.594	56.4853
1.588	56.6127
1.582	56.8992
1.576	57.094
1.57	57.2114
1.564	57.3352
1.558	57.436
1.552	57.3342
1.546	57.2584
1.54	57.0052
1.534	56.3629
1.528	56.2732
1.522	55.7615
1.516	54.4029
1.51	52.3817
1.504	48.3845
1.498	46.0941
1.492	44.1405
1.486	36.2615
1.48	20.3407
1.474	26.2851
1.468	36.1597
1.462	37.6936
1.456	39.0249
1.45	42.9341
1.444	45.7018
1.438	43.7652
1.432	33.4354
1.426	29.8253
1.42	48.4785
1.414	57.5562
1.408	61.5088
1.402	65.3141
1.396	67.918
1.39	69.8897
1.384	70.7465
1.378	70.9904
1.372	72.0841
1.366	71.5832
1.36	70.0583
1.354	70.1663
1.348	70.3816
1.342	69.9941
1.336	70.1003
1.33	73.2315
1.324	73.7603
1.318	74.5655
1.312	76.2245
1.306	76.6266
1.3	76.4887
1.294	76.3854
1.288	75.3788
1.282	72.1937
1.276	69.8452
1.27	67.3653
1.264	67.8094
1.258	71.4269
1.252	73.2397
1.246	73.8624
1.24	74.5019
1.234	75.1842
1.228	76.0199
1.222	77.0077
1.216	77.8169
1.21	78.0981
1.204	78.592
1.198	79.0049
1.192	79.187
1.186	79.3629
1.18	79.4582
1.174	79.5565
1.168	79.6051
1.162	79.7401
1.156	79.8388
1.15	79.9858
1.144	80.0016
1.138	80.0066
1.132	79.9428
1.126	79.7726
1.12	79.5173
1.114	79.4356
1.108	79.501
1.102	79.349
1.096	79.5451
1.09	79.482
1.084	79.5139
1.078	79.4731
1.072	79.5188
1.066	79.4326
1.06	79.3157
1.054	79.2641
1.048	79.1576
1.042	79.078
1.036	78.9143
1.03	78.5223
1.024	77.5531
1.018	76.3288
1.012	75.285
1.006	74.7307
1	74.56
0.994	74.9307
0.988	75.574
0.982	76.3705
0.976	76.998
0.97	77.436
0.964	77.8208
0.958	77.9955
0.952	78.0367
0.946	78.0704
0.94	78.1113
0.934	78.1401
0.928	78.2062
0.922	78.0589
0.916	77.8222
0.91	77.8402
0.904	77.7926
0.898	77.8959
0.892	77.9231
0.886	78.0409
0.88	78.1463
0.874	78.1186
0.868	78.2414
0.862	78.2547
0.856	78.3342
0.85	78.4236
0.844	78.5072
0.838	78.462
0.832	78.437
0.826	78.5037
0.82	78.5612
0.814	78.6056
0.808	78.5597
0.802	78.4966
0.796	78.3024
0.79	78.338
0.784	78.2275
0.778	78.1681
0.772	78.1269
0.766	78.1899
0.76	78.2372
0.754	78.2363
0.748	78.1604
0.742	78.0081
0.736	77.942
0.73	77.8623
0.724	77.7031
0.718	77.5232
0.712	77.2991
0.706	77.054
0.7	76.7828
0.694	76.4936
0.688	76.2126
0.682	75.8622
0.676	75.5152
0.67	75.1129
0.664	74.7117
0.658	74.2701
0.652	73.8306
0.646	73.3631
0.64	72.8738
0.634	72.3564
0.628	71.7993
0.622	71.1881
0.616	70.5071
0.61	69.7937
0.604	69.018
0.598	68.189
0.592	67.2866
0.586	66.2964
0.58	65.2464
0.574	64.204
0.568	63.1415
0.562	62.0446
0.556	60.9039
0.55	59.8105
0.544	58.7333
0.538	57.6919
0.532	56.6932
0.526	55.7266
0.52	54.7971
0.514	53.9081
0.508	53.0317
0.502	52.1824
0.496	51.3386
0.49	50.5365
0.484	49.7837
0.478	49.2115
0.472	48.6982
0.466	48.1925
0.46	47.7246
0.454	47.2217
0.448	46.6353
0.442	45.9513
0.436	45.1264
0.43	44.084
0.424	43.5519
0.418	42.8127
0.412	41.954
0.406	40.9618
0.4	39.7287
