Name: Augite-Mica Peridotie
Type: Rock
Class: Igneous
Subclass: Ultramafic
Particle Size: Solid surface
Sample No.: Ward46.txt
Owner: JPL
Origin: Ward's Collection of American Rocks.  Sample locality - Murfreesboro, Pike County, Arkansas.
Description: A dense greenish black rock with porphyritic texture.  The
Measurement: Hemispherical reflectance
X Units: Wavelength (micrometers)
Y Units: Reflectance (percent)
wavelength	value
15.3871	4.58231
15.118	4.03068
14.8581	3.72012
14.6069	3.24603
14.3642	2.79753
14.1293	2.09383
13.9021	2.44314
13.682	3.0539
13.4687	2.71712
13.2621	2.51788
13.0616	2.58918
12.8672	3.03398
12.6784	3.34864
12.4951	2.89587
12.317	3.64783
12.1439	3.94677
11.9757	4.54928
11.812	4.92695
11.6527	5.66196
11.4977	6.55297
11.3468	6.60976
11.1997	6.97152
11.0564	7.64334
10.9168	8.54642
10.7806	8.35922
10.6478	10.3304
10.5182	11.6337
10.3917	12.5291
10.2683	13.5826
10.1477	13.6961
10.0299	14.7657
9.9148	15.8
9.8024	16.729
9.6925	17.3289
9.585	16.5071
9.4798	13.978
9.377	12.2501
9.2763	10.013
9.1778	8.10284
9.0814	6.47046
8.987	5.07602
8.8945	3.90106
8.8039	2.9989
8.7151	1.8822
8.6281	2.20247
8.5428	1.41626
8.4592	1.5202
8.3772	1.52318
8.2967	1.78173
8.2179	2.0835
8.1404	1.95995
8.0645	1.70674
7.9899	2.044
7.9167	1.74199
7.8449	1.93114
7.7743	2.34032
7.705	2.33242
7.6369	2.30389
7.57	2.66465
7.5043	2.46967
7.4397	2.66334
7.3762	2.88303
7.3138	2.76543
7.2524	2.90303
7.1921	2.73401
7.1327	2.89082
7.0743	2.90354
7.0169	3.29619
6.9604	3.30842
6.9047	3.44341
6.85	3.7255
6.7962	3.98759
6.7431	3.75524
6.6909	3.7228
6.6395	3.79184
6.5889	3.6716
6.539	3.78112
6.49	3.44777
6.4416	3.58612
6.3939	3.26797
6.347	3.3352
6.3007	3.02836
6.2551	2.74791
6.2101	2.90312
6.1658	2.51559
6.1222	2.44177
6.0791	2.50969
6.0366	2.48252
5.9948	2.20929
5.9535	2.81565
5.9127	2.90304
5.8726	3.12475
5.8329	3.26828
5.7938	3.46322
5.7552	3.57979
5.7172	3.835
5.6796	3.72004
5.6425	4.07549
5.6059	3.86178
5.5698	4.39317
5.5341	4.2547
5.4989	4.37814
5.4641	4.53546
5.4298	4.33244
5.3959	4.21031
5.3624	4.76804
5.3294	4.4923
5.2967	4.49943
5.2644	4.70237
5.2326	4.64565
5.2011	4.5148
5.17	4.9732
5.1392	4.77261
5.1088	4.8333
5.0788	4.78394
5.0491	4.88012
5.0198	5.05945
4.9908	4.78157
4.9622	5.06266
4.9338	5.26264
4.9058	5.10124
4.8781	5.22828
4.8508	5.42378
4.8237	5.53056
4.7969	5.31055
4.7704	5.28871
4.7443	5.44063
4.7184	5.27696
4.6927	5.70682
4.6674	5.6324
4.6423	5.69795
4.6175	5.48653
4.593	5.72242
4.5687	5.52859
4.5447	5.8985
4.5209	5.75499
4.4974	5.65934
4.4741	5.80429
4.451	5.90717
4.4282	5.86457
4.4057	5.7008
4.3833	5.84649
4.3612	5.98838
4.3393	6.16342
4.3176	5.65713
4.2962	6.19486
4.2749	6.28162
4.2539	6.27556
4.233	6.08426
4.2124	6.29997
4.192	6.33286
4.1717	6.43934
4.1517	6.54395
4.1319	6.85723
4.1122	6.14183
4.0927	6.47848
4.0734	6.16719
4.0543	6.69359
4.0354	6.56568
4.0166	6.40059
3.9981	6.44762
3.9796	6.59359
3.9614	6.21235
3.9433	6.62514
3.9254	6.52833
3.9077	6.47427
3.8901	6.4773
3.8726	6.70774
3.8554	6.41925
3.8382	6.49835
3.8213	6.43977
3.8045	6.34579
3.7878	6.1185
3.7713	5.90108
3.7549	6.4408
3.7386	5.84856
3.7225	6.08628
3.7066	5.89254
3.6907	6.27108
3.675	5.38261
3.6595	6.10882
3.644	5.93495
3.6287	5.81295
3.6136	5.92924
3.5985	5.47133
3.5836	5.78793
3.5688	5.23143
3.5541	5.0207
3.5396	5.8796
3.5251	4.65004
3.5108	5.29808
3.4966	4.84429
3.4825	5.16196
3.4685	4.99577
3.4547	4.72084
3.4409	4.65694
3.4273	4.49253
3.4137	4.84688
3.4003	4.68499
3.387	4.81383
3.3738	5.31845
3.3606	4.64749
3.3476	5.1256
3.3347	4.41873
3.3219	4.79275
3.3092	4.32909
3.2965	4.05084
3.284	4.82613
3.2716	4.20283
3.2593	4.34181
3.247	3.85531
3.2348	3.6472
3.2228	4.05735
3.2108	4.07876
3.1989	3.9247
3.1871	3.97257
3.1754	3.10056
3.1638	4.65136
3.1523	3.6749
3.1408	4.05818
3.1294	4.60573
3.1181	3.20536
3.1069	3.86372
3.0958	4.0655
3.0848	3.01873
3.0738	3.61499
3.0629	3.37821
3.0521	4.08023
3.0413	3.21938
3.0307	3.40094
3.0201	2.91559
3.0096	4.28079
2.9991	3.69158
2.9887	4.02639
2.9784	5.3169
2.9682	4.05731
2.9581	3.50415
2.948	4.19956
2.9379	4.23405
2.928	4.607
2.9181	2.58012
2.9083	4.71823
2.8985	3.49599
2.8888	3.26127
2.8792	3.46276
2.8697	3.51044
2.8602	4.06735
2.8507	3.56162
2.8413	2.89909
2.832	2.91934
2.8228	3.89615
2.8136	3.20104
2.8045	3.83963
2.7954	2.6471
2.7864	4.51729
2.7774	3.14684
2.7685	2.82258
2.7597	3.90983
2.7509	2.50329
2.7422	4.39709
2.7335	3.283
2.7249	3.42615
2.7163	3.55991
2.7078	4.16912
2.6994	3.41758
2.691	4.67716
2.6826	5.08641
2.6743	9.23854
2.666	8.8136
2.6578	10.2273
2.6497	9.95648
2.6416	10.8178
2.6336	9.64746
2.6256	9.55352
2.6176	10.2895
2.6097	10.8312
2.6018	12.0583
2.594	9.97995
2.5863	10.694
2.5785	10.5147
2.5709	11.0648
2.5633	11.1153
2.5557	11.0514
2.5481	10.283
2.5406	10.1327
2.5332	10.2686
2.5258	10.8147
2.5184	11.2478
2.5111	10.7812
2.5038	10.6031
2.4966	10.3137
2.4894	11.3512
2.4823	10.5211
2.4752	11.6025
2.4681	12.4882
2.4611	10.8703
2.4541	11.1352
2.4471	11.3539
2.4402	12.1442
2.4333	11.3714
2.4265	12.0516
2.4197	12.8425
2.413	11.1408
2.4063	11.4474
2.3996	12.0874
2.3929	11.7461
2.3863	11.7903
2.3798	11.9426
2.3732	12.0152
2.3667	12.9883
2.3603	11.9843
2.3538	10.9381
2.3474	12.9221
2.3411	10.0477
2.3347	12.0294
2.3285	13.1447
2.3222	12.23
2.316	11.0927
2.3098	12.9016
2.3036	11.9518
2.2975	12.535
2.2914	13.6716
2.2854	12.3364
2.2793	14.0937
2.2733	13.1818
2.2674	13.5787
2.2614	13.6529
2.2555	13.5101
2.2497	13.5429
2.2438	14.6453
2.238	14.961
2.2322	16.6019
2.2265	13.6519
2.2208	14.903
2.2151	15.9938
2.2094	14.6369
2.2038	15.6951
2.1982	15.4256
2.1926	16.8129
2.187	14.5897
2.1815	16.8902
2.176	16.6478
2.1706	14.9855
2.1651	17.4514
2.1597	16.2903
2.1543	14.7151
2.149	16.8777
2.1436	15.2071
2.1383	17.6717
2.1331	14.7554
2.1278	16.3687
2.1226	13.7672
2.1174	16.9592
2.1122	16.2744
2.1071	15.7579
2.1019	16.183
2.0968	14.9579
2.0918	15.5113
2.0867	13.6336
2.0817	16.3034
2.0767	17.0007
2.0717	15.9389
2.0667	16.6284
2.0618	15.2534
2.0569	17.2059
2.052	18.1983
2.0472	14.2095
2.0423	16.3653
2.0375	16.5354
2.0327	15.7847
2.028	14.5773
2.0232	13.7746
2.0185	14.0217
2.0138	16.749
2.0091	16.5295
2.0044	13.1808
1.9998	12.9354
