Name: Magnetite Fe^2+Fe_2^3+O_4
Type: Mineral
Class: Oxides
Particle Size: 0-45um
Sample No.: O-4A
Owner: JPL
Wavelength Range: VNIR-SWIR
Origin: Canada, Ontario, Haliburton County, Wilberforce
Measurement: Hemispherical reflectance
X Units: Wavelength (micrometers)
Y Units: Reflectance (percent)
wavelength	value
0.4	4.59
0.403	4.54
0.406	4.59
0.409	4.41
0.412	4.41
0.415	4.53
0.418	4.47
0.421	4.41
0.424	4.45
0.427	4.4
0.43	4.46
0.433	4.46
0.436	4.28
0.439	4.28
0.442	4.44
0.445	4.39
0.448	4.39
0.451	4.28
0.454	4.2
0.457	4.33
0.46	4.31
0.463	4.26
0.466	4.21
0.469	4.21
0.472	4.28
0.475	4.33
0.478	4.27
0.481	4.25
0.484	4.08
0.487	4.29
0.49	4.28
0.493	4.26
0.496	4.24
0.499	4.22
0.502	4.27
0.505	4.27
0.508	4.15
0.511	4.16
0.514	4.27
0.517	4.15
0.52	4.2
0.523	4.19
0.526	4.24
0.529	4.25
0.532	4.32
0.535	4.06
0.538	4.07
0.541	4.25
0.544	4.16
0.547	4.09
0.55	4.23
0.553	4.16
0.556	4.21
0.559	4.16
0.562	4.25
0.565	4.14
0.568	4.14
0.571	4.24
0.574	4.18
0.577	4.14
0.58	4.11
0.583	4.11
0.586	4.1
0.589	4.11
0.592	4.11
0.595	4.16
0.598	4.14
0.601	4.3
0.604	4.15
0.607	4.08
0.61	4.24
0.613	4.23
0.616	4.12
0.619	4.14
0.622	4.17
0.625	4.12
0.628	4.23
0.631	4.14
0.634	4.12
0.637	4.18
0.64	4.17
0.643	4.18
0.646	4.12
0.649	4.13
0.652	4.16
0.655	4.19
0.658	4.13
0.661	4.06
0.664	4.16
0.667	4.18
0.67	4.13
0.673	4.17
0.676	4.17
0.679	4.17
0.682	4.13
0.685	4.11
0.688	4.06
0.691	4.11
0.694	4.17
0.697	4.07
0.7	4.03
0.703	4.16
0.706	4.11
0.709	4
0.712	4.06
0.715	4.11
0.718	4.12
0.721	4.11
0.724	4.12
0.727	3.94
0.73	4.05
0.733	4.07
0.736	4.06
0.739	4
0.742	4.07
0.745	3.99
0.748	4.05
0.751	4.06
0.754	3.88
0.757	3.95
0.76	4
0.763	4
0.766	3.99
0.769	4.05
0.772	3.99
0.775	4.05
0.778	4.11
0.781	3.93
0.784	4.04
0.787	4.1
0.79	4.04
0.793	3.99
0.796	4.04
0.799	4
0.808	4.13
0.82	4.14
0.832	4.09
0.844	4.1
0.856	4.05
0.868	4.04
0.88	3.98
0.892	3.92
0.904	3.87
0.916	3.81
0.928	3.81
0.94	3.74
0.952	3.75
0.964	3.8
0.976	3.75
0.988	3.81
1	3.7
1.012	3.7
1.024	3.63
1.036	3.64
1.048	3.62
1.06	3.63
1.072	3.62
1.084	3.61
1.096	3.65
1.108	3.7
1.12	3.8
1.132	3.85
1.144	3.73
1.156	3.68
1.168	3.74
1.18	3.67
1.192	3.68
1.204	3.74
1.216	3.71
1.228	3.86
1.24	3.94
1.252	3.92
1.264	3.97
1.276	3.97
1.288	3.97
1.3	3.97
1.312	4.03
1.324	4.08
1.336	4.09
1.348	4.18
1.36	4.24
1.372	4.24
1.384	4.33
1.396	4.31
1.408	4.26
1.42	4.32
1.432	4.31
1.444	4.36
1.456	4.43
1.468	4.48
1.48	4.49
1.492	4.55
1.504	4.55
1.516	4.56
1.528	4.61
1.54	4.65
1.552	4.7
1.564	4.77
1.576	4.78
1.588	4.77
1.6	4.79
1.612	4.84
1.624	4.88
1.636	4.94
1.648	4.95
1.66	4.93
1.672	4.93
1.684	5.05
1.696	5.04
1.708	5.14
1.72	5.18
1.732	5.13
1.744	5.09
1.756	5.21
1.768	5.17
1.78	5.21
1.792	5.23
1.804	5.31
1.816	5.31
1.828	5.36
1.84	5.46
1.852	5.46
1.864	5.42
1.876	5.44
1.888	5.5
1.9	5.43
1.912	5.42
1.924	5.47
1.936	5.49
1.948	5.56
1.96	5.64
1.972	5.64
1.984	5.73
1.996	5.66
2.008	5.77
2.02	5.81
2.032	5.79
2.044	5.73
2.056	5.73
2.068	5.82
2.08	5.77
2.092	5.79
2.104	5.85
2.116	5.88
2.128	5.87
2.14	5.91
2.152	5.87
2.164	5.89
2.176	5.96
2.188	5.98
2.2	5.96
2.212	6.02
2.224	6.03
2.236	6.08
2.248	6.08
2.26	6.05
2.272	6.11
2.284	6.1
2.296	6.22
2.308	6.12
2.32	6.12
2.332	6.14
2.344	6.27
2.356	6.26
2.368	6.27
2.38	6.27
2.392	6.3
2.404	6.29
2.416	6.28
2.428	6.34
2.44	6.32
2.452	6.32
2.464	6.33
2.476	6.37
2.488	6.49
2.5	6.48
