Name: Glauconite (K,Na)(Fe^3+,Al,Mg)_2(Si,Al)_4O_10(OH)_2
Type: Mineral
Class: Silicates
Subclass: Phyllosilicates
Particle Size: 125-500um
Sample No.: PS-19A
Owner: JPL
Origin: USA, New Jersey.
Measurement: Hemispherical reflectance
X Units: Wavelength (micrometers)
Y Units: Reflectance (percent)
wavelength	value
2.5	8.14166
2.494	8.43161
2.488	8.43387
2.482	8.67648
2.476	8.71389
2.47	8.93693
2.464	9.15618
2.458	9.28368
2.452	9.49413
2.446	9.61906
2.44	9.97041
2.434	10.1595
2.428	10.4044
2.422	10.5907
2.416	10.8338
2.41	10.8841
2.404	10.8157
2.398	10.6874
2.392	10.3038
2.386	9.9505
2.38	9.47863
2.374	9.1568
2.368	8.85131
2.362	8.75172
2.356	8.87897
2.35	9.15386
2.344	9.40576
2.338	9.55153
2.332	9.49224
2.326	9.19046
2.32	8.60714
2.314	8.19665
2.308	8.02343
2.302	8.36647
2.296	8.94902
2.29	9.82224
2.284	10.651
2.278	11.2891
2.272	11.4512
2.266	11.3917
2.26	11.2719
2.254	11.2509
2.248	11.3312
2.242	11.6388
2.236	11.8883
2.23	12.2469
2.224	12.5063
2.218	12.7851
2.212	12.9456
2.206	12.9287
2.2	12.9694
2.194	13.0217
2.188	13.1028
2.182	13.1287
2.176	13.153
2.17	13.1819
2.164	13.1347
2.158	13.0697
2.152	12.975
2.146	12.894
2.14	12.7951
2.134	12.7209
2.128	12.6051
2.122	12.3713
2.116	12.2388
2.11	12.012
2.104	11.8121
2.098	11.6253
2.092	11.4985
2.086	11.2791
2.08	11.1375
2.074	10.9729
2.068	10.7987
2.062	10.6185
2.056	10.4155
2.05	10.236
2.044	10.0232
2.038	9.83956
2.032	9.65505
2.026	9.45922
2.02	9.18261
2.014	9.00796
2.008	8.75664
2.002	8.51117
1.996	8.36798
1.99	8.10677
1.984	7.97929
1.978	7.68223
1.972	7.50444
1.966	7.35921
1.96	7.17761
1.954	7.09574
1.948	6.83444
1.942	6.77725
1.936	6.50334
1.93	6.45026
1.924	6.29072
1.918	6.01065
1.912	5.73095
1.906	5.70284
1.9	5.91451
1.894	6.23294
1.888	6.58128
1.882	6.63187
1.876	6.69237
1.87	6.60219
1.864	6.6542
1.858	6.56327
1.852	6.42841
1.846	6.39362
1.84	6.24887
1.834	6.17513
1.828	6.01578
1.822	5.90312
1.816	5.83357
1.81	5.66807
1.804	5.6236
1.798	5.49163
1.792	5.43287
1.786	5.38141
1.78	5.23914
1.774	5.15153
1.768	5.06867
1.762	4.96515
1.756	4.89821
1.75	4.84021
1.744	4.77001
1.738	4.72055
1.732	4.64679
1.726	4.54836
1.72	4.4278
1.714	4.36599
1.708	4.39242
1.702	4.26017
1.696	4.2802
1.69	4.10665
1.684	4.14333
1.678	4.07468
1.672	3.99284
1.666	3.91412
1.66	3.84957
1.654	3.88636
1.648	3.71156
1.642	3.82844
1.636	3.6883
1.63	3.62693
1.624	3.58195
1.618	3.53337
1.612	3.57928
1.606	3.47354
1.6	3.49105
1.594	3.45581
1.588	3.41985
1.582	3.37691
1.576	3.32274
1.57	3.34007
1.564	3.24137
1.558	3.26801
1.552	3.23418
1.546	3.17815
1.54	3.16532
1.534	3.17542
1.528	3.14521
1.522	3.14372
1.516	3.08064
1.51	3.09493
1.504	2.99958
1.498	3.03993
1.492	2.99729
1.486	3.05443
1.48	3.02929
1.474	3.02424
1.468	2.95809
1.462	2.9375
1.456	2.94346
1.45	2.92334
1.444	2.8608
1.438	2.91201
1.432	2.88127
1.426	2.90519
1.42	2.88346
1.414	2.85069
1.408	2.95596
1.402	2.83626
1.396	2.9348
1.39	2.90237
1.384	2.87815
1.378	2.9336
1.372	2.84356
1.366	2.82396
1.36	2.83842
1.354	2.7889
1.348	2.8007
1.342	2.87096
1.336	2.85491
1.33	2.77087
1.324	2.8161
1.318	2.80759
1.312	2.71507
1.306	2.74003
1.3	2.75111
1.294	2.7633
1.288	2.75295
1.282	2.74947
1.276	2.72591
1.27	2.68509
1.264	2.74674
1.258	2.70659
1.252	2.70293
1.246	2.67023
1.24	2.72074
1.234	2.65322
1.228	2.69393
1.222	2.69691
1.216	2.72612
1.21	2.74764
1.204	2.7099
1.198	2.65556
1.192	2.65202
1.186	2.65888
1.18	2.71599
1.174	2.66986
1.168	2.72899
1.162	2.70835
1.156	2.68982
1.15	2.72143
1.144	2.69175
1.138	2.74487
1.132	2.75366
1.126	2.76944
1.12	2.68576
1.114	2.71953
1.108	2.69504
1.102	2.83292
1.096	2.71516
1.09	2.77477
1.084	2.83025
1.078	2.80182
1.072	2.88524
1.066	2.83181
1.06	2.87715
1.054	2.92573
1.048	3.03304
1.042	3.05198
1.036	3.03875
1.03	3.0475
1.024	3.05366
1.018	3.01363
1.012	3.03372
1.006	3.10847
1	3.12351
0.994	3.11472
0.988	3.1626
0.982	3.16193
0.976	3.19194
0.97	3.20755
0.964	3.21929
0.958	3.21638
0.952	3.3026
0.946	3.31557
0.94	3.31705
0.934	3.41446
0.928	3.41577
0.922	3.41211
0.916	3.4944
0.91	3.51844
0.904	3.60225
0.898	3.63635
0.892	3.64721
0.886	3.71488
0.88	3.77687
0.874	3.81491
0.868	3.82597
0.862	3.87155
0.856	4.14384
0.85	4.17385
0.844	4.18995
0.838	4.21911
0.832	4.23841
0.826	4.25148
0.82	4.27044
0.814	4.28757
0.808	4.29206
0.802	4.31105
0.796	4.32348
0.79	4.34144
0.784	4.35847
0.778	4.37391
0.772	4.39323
0.766	4.42735
0.76	4.45804
0.754	4.49958
0.748	4.54249
0.742	4.5872
0.736	4.64157
0.73	4.70362
0.724	4.77965
0.718	4.85343
0.712	4.93216
0.706	5.02073
0.7	5.11737
0.694	5.22026
0.688	5.32257
0.682	5.43028
0.676	5.54046
0.67	5.65747
0.664	5.78411
0.658	5.90907
0.652	6.04377
0.646	6.1815
0.64	6.32143
0.634	6.47631
0.628	6.63644
0.622	6.80513
0.616	6.98494
0.61	7.16818
0.604	7.3635
0.598	7.56949
0.592	7.78143
0.586	7.99527
0.58	8.20875
0.574	8.4148
0.568	8.59999
0.562	8.75942
0.556	8.90143
0.55	9.00472
0.544	9.0904
0.538	9.14704
0.532	9.15186
0.526	9.12533
0.52	9.10263
0.514	9.09398
0.508	9.06977
0.502	9.03346
0.496	9.00142
0.49	8.98065
0.484	8.92259
0.478	8.8018
0.472	8.65812
0.466	8.49741
0.46	8.36175
0.454	8.2565
0.448	8.18778
0.442	8.18276
0.436	8.17147
0.43	8.13199
0.424	8.07543
0.418	8.01225
0.412	7.94066
0.406	7.88422
0.4	7.82967
