Name: Magnetite Fe^2+Fe_2^3+O_4
Type: Mineral
Class: Oxides
Particle Size: 45-125um
Sample No.: O-4A
Owner: JPL
Origin: Canada, Ontario, Haliburton County, Wilberforce.
Measurement: Hemispherical reflectance
X Units: Wavelength (micrometers)
Y Units: Reflectance (percent)
wavelength	value
2.5	10.0416
2.494	9.93966
2.488	10.109
2.482	9.96033
2.476	9.97686
2.47	10.0475
2.464	9.97619
2.458	10.0478
2.452	9.96096
2.446	9.93122
2.44	9.87373
2.434	9.89998
2.428	9.89893
2.422	9.98357
2.416	9.83423
2.41	9.90156
2.404	9.88904
2.398	9.85705
2.392	9.87942
2.386	9.82549
2.38	9.79162
2.374	9.81462
2.368	9.85195
2.362	9.75846
2.356	9.83003
2.35	9.85446
2.344	9.79077
2.338	9.7821
2.332	9.75307
2.326	9.7865
2.32	9.76128
2.314	9.69333
2.308	9.72496
2.302	9.6169
2.296	9.64912
2.29	9.6975
2.284	9.67801
2.278	9.68194
2.272	9.66008
2.266	9.62146
2.26	9.67026
2.254	9.49104
2.248	9.54763
2.242	9.64105
2.236	9.55999
2.23	9.5889
2.224	9.50459
2.218	9.53476
2.212	9.59465
2.206	9.59098
2.2	9.49659
2.194	9.57151
2.188	9.51426
2.182	9.54567
2.176	9.52392
2.17	9.49872
2.164	9.51642
2.158	9.55059
2.152	9.56024
2.146	9.56641
2.14	9.52974
2.134	9.48527
2.128	9.50659
2.122	9.45297
2.116	9.38938
2.11	9.35154
2.104	9.30505
2.098	9.25763
2.092	9.29637
2.086	9.27398
2.08	9.24009
2.074	9.26601
2.068	9.25741
2.062	9.2166
2.056	9.22831
2.05	9.24625
2.044	9.19268
2.038	9.17761
2.032	9.14949
2.026	9.16918
2.02	9.19658
2.014	9.14939
2.008	9.08949
2.002	9.12661
1.996	9.08262
1.99	9.05733
1.984	9.06562
1.978	9.00452
1.972	8.98669
1.966	8.98716
1.96	8.99503
1.954	9.00657
1.948	8.87891
1.942	8.88243
1.936	8.84279
1.93	8.86146
1.924	8.75534
1.918	8.81626
1.912	8.86408
1.906	8.8005
1.9	8.76847
1.894	8.76719
1.888	8.75724
1.882	8.73201
1.876	8.64321
1.87	8.64217
1.864	8.6806
1.858	8.58124
1.852	8.63262
1.846	8.57736
1.84	8.5844
1.834	8.4924
1.828	8.54426
1.822	8.49697
1.816	8.42087
1.81	8.42409
1.804	8.3931
1.798	8.40063
1.792	8.29515
1.786	8.27018
1.78	8.23993
1.774	8.24789
1.768	8.20558
1.762	8.15406
1.756	8.14298
1.75	8.11233
1.744	8.0605
1.738	8.11669
1.732	7.97425
1.726	8.01589
1.72	7.95813
1.714	7.93306
1.708	7.93278
1.702	7.90942
1.696	7.89354
1.69	7.83109
1.684	7.7102
1.678	7.75827
1.672	7.71049
1.666	7.64135
1.66	7.70134
1.654	7.5831
1.648	7.58643
1.642	7.60358
1.636	7.51657
1.63	7.42054
1.624	7.41285
1.618	7.42108
1.612	7.39389
1.606	7.34955
1.6	7.28464
1.594	7.26525
1.588	7.24788
1.582	7.24285
1.576	7.2071
1.57	7.13573
1.564	7.14694
1.558	7.13222
1.552	7.11048
1.546	7.04967
1.54	7.00123
1.534	7.00973
1.528	6.97088
1.522	6.9602
1.516	6.94147
1.51	6.87733
1.504	6.83849
1.498	6.74352
1.492	6.75278
1.486	6.72323
1.48	6.71938
1.474	6.71039
1.468	6.66162
1.462	6.65646
1.456	6.5782
1.45	6.48153
1.444	6.49099
1.438	6.50091
1.432	6.43691
1.426	6.4901
1.42	6.44133
1.414	6.3624
1.408	6.31625
1.402	6.31718
1.396	6.34177
1.39	6.31503
1.384	6.25784
1.378	6.24105
1.372	6.12457
1.366	6.14945
1.36	6.17503
1.354	6.09595
1.348	6.05813
1.342	5.91242
1.336	5.94047
1.33	5.87799
1.324	5.80589
1.318	5.80241
1.312	5.76968
1.306	5.7024
1.3	5.80586
1.294	5.75331
1.288	5.62558
1.282	5.66665
1.276	5.5684
1.27	5.53189
1.264	5.52352
1.258	5.48721
1.252	5.46469
1.246	5.42911
1.24	5.42875
1.234	5.35743
1.228	5.33011
1.222	5.31131
1.216	5.33307
1.21	5.30171
1.204	5.3089
1.198	5.18178
1.192	5.18316
1.186	5.17198
1.18	5.09394
1.174	5.15732
1.168	5.10438
1.162	5.01633
1.156	4.96943
1.15	4.98987
1.144	4.9796
1.138	4.98536
1.132	5.01541
1.126	4.91503
1.12	4.91301
1.114	4.94751
1.108	4.89598
1.102	4.86858
1.096	4.89124
1.09	4.86678
1.084	4.83952
1.078	4.87363
1.072	4.86507
1.066	4.81765
1.06	4.86924
1.054	4.7026
1.048	4.83641
1.042	4.75743
1.036	4.79159
1.03	4.80931
1.024	4.8109
1.018	4.85644
1.012	4.76546
1.006	4.78322
1	4.83503
0.994	4.75416
0.988	4.83869
0.982	4.88138
0.976	4.87607
0.97	4.875
0.964	4.87023
0.958	4.90796
0.952	4.885
0.946	4.97985
0.94	4.89295
0.934	4.92116
0.928	5.00422
0.922	5.03876
0.916	5.05398
0.91	5.07297
0.904	5.08939
0.898	5.12281
0.892	5.11043
0.886	5.10975
0.88	5.20305
0.874	5.18999
0.868	5.20358
0.862	5.25101
0.856	5.45596
0.85	5.50134
0.844	5.52244
0.838	5.55041
0.832	5.586
0.826	5.60706
0.82	5.62634
0.814	5.6664
0.808	5.69533
0.802	5.73105
0.796	5.75417
0.79	5.79092
0.784	5.81875
0.778	5.85442
0.772	5.88899
0.766	5.91387
0.76	5.93873
0.754	5.9707
0.748	6.00586
0.742	6.03147
0.736	6.06741
0.73	6.09473
0.724	6.12215
0.718	6.15343
0.712	6.1764
0.706	6.20204
0.7	6.22466
0.694	6.24881
0.688	6.26802
0.682	6.29306
0.676	6.31109
0.67	6.32551
0.664	6.34155
0.658	6.35553
0.652	6.36829
0.646	6.37636
0.64	6.38408
0.634	6.38787
0.628	6.39136
0.622	6.38921
0.616	6.38898
0.61	6.38822
0.604	6.38668
0.598	6.38797
0.592	6.3887
0.586	6.38636
0.58	6.38264
0.574	6.38055
0.568	6.3737
0.562	6.36916
0.556	6.36261
0.55	6.35856
0.544	6.35332
0.538	6.34538
0.532	6.34465
0.526	6.34433
0.52	6.34901
0.514	6.35926
0.508	6.3714
0.502	6.38629
0.496	6.40371
0.49	6.42247
0.484	6.43715
0.478	6.43896
0.472	6.45053
0.466	6.46741
0.46	6.48752
0.454	6.51912
0.448	6.56545
0.442	6.61619
0.436	6.67168
0.43	6.72351
0.424	6.77089
0.418	6.81841
0.412	6.86649
0.406	6.91016
0.4	6.96577
