Name: Corrensite (Mg,Fe)_9(Si,Al)_8O_20(OH)_10._xH_2O
Type: Mineral
Class: Silicates
Subclass: Phyllosilicates
Particle Size: 0-45um
Sample No.: PS-10A
Owner: JPL
Origin: USA, Washington, Packwood.
Measurement: Hemispherical reflectance
X Units: Wavelength (micrometers)
Y Units: Reflectance (percent)
wavelength	value
2.5	56.2067
2.494	56.382
2.488	56.6868
2.482	56.944
2.476	57.3471
2.47	57.6229
2.464	57.9219
2.458	58.1339
2.452	58.5135
2.446	58.8125
2.44	59.1382
2.434	59.4429
2.428	59.5773
2.422	59.734
2.416	59.9305
2.41	60.1397
2.404	60.0548
2.398	60.254
2.392	60.4106
2.386	60.6136
2.38	60.6985
2.374	60.7449
2.368	60.8388
2.362	60.7688
2.356	60.8932
2.35	60.8488
2.344	61.0135
2.338	61.1685
2.332	61.2775
2.326	61.4042
2.32	61.4686
2.314	61.6231
2.308	61.7971
2.302	61.8526
2.296	61.8672
2.29	62.1111
2.284	62.4017
2.278	62.7881
2.272	63.1009
2.266	63.395
2.26	63.675
2.254	63.9408
2.248	64.2366
2.242	64.752
2.236	65.2447
2.23	65.6701
2.224	65.9051
2.218	66.2954
2.212	66.4808
2.206	66.6485
2.2	66.8508
2.194	67.044
2.188	67.1607
2.182	67.4836
2.176	67.6711
2.17	67.8735
2.164	68.0429
2.158	68.2885
2.152	68.3264
2.146	68.3517
2.14	68.3725
2.134	68.3154
2.128	68.1575
2.122	67.9832
2.116	67.7014
2.11	67.5038
2.104	67.2988
2.098	67.0383
2.092	67.0856
2.086	67.014
2.08	66.9504
2.074	67.027
2.068	66.901
2.062	66.8167
2.056	66.7507
2.05	66.7221
2.044	66.5905
2.038	66.4278
2.032	66.3191
2.026	66.0398
2.02	65.8835
2.014	65.7405
2.008	65.4983
2.002	65.2481
1.996	64.9614
1.99	64.5838
1.984	64.3236
1.978	64.0141
1.972	63.8067
1.966	63.607
1.96	63.29
1.954	63.0654
1.948	62.8571
1.942	62.5785
1.936	62.2563
1.93	61.9365
1.924	61.5769
1.918	61.5266
1.912	61.7259
1.906	62.566
1.9	64.0198
1.894	65.5455
1.888	66.6569
1.882	67.352
1.876	67.8783
1.87	68.1924
1.864	68.4835
1.858	68.5691
1.852	68.7191
1.846	68.7688
1.84	68.8102
1.834	68.825
1.828	68.7998
1.822	68.8323
1.816	68.8183
1.81	68.7622
1.804	68.7842
1.798	68.7826
1.792	68.7308
1.786	68.6088
1.78	68.6452
1.774	68.5937
1.768	68.5719
1.762	68.5437
1.756	68.6124
1.75	68.5852
1.744	68.5018
1.738	68.5683
1.732	68.4962
1.726	68.4466
1.72	68.4902
1.714	68.3554
1.708	68.2646
1.702	68.226
1.696	68.1947
1.69	68.185
1.684	68.0868
1.678	68.0886
1.672	67.9166
1.666	67.9245
1.66	67.864
1.654	67.837
1.648	67.6862
1.642	67.6255
1.636	67.5115
1.63	67.4297
1.624	67.3753
1.618	67.2891
1.612	67.205
1.606	67.1303
1.6	67.0698
1.594	66.9706
1.588	66.8577
1.582	66.7492
1.576	66.6049
1.57	66.5603
1.564	66.3133
1.558	66.3571
1.552	66.2082
1.546	66.1655
1.54	65.9511
1.534	65.8697
1.528	65.7118
1.522	65.6129
1.516	65.3698
1.51	65.2291
1.504	65.0866
1.498	64.9162
1.492	64.699
1.486	64.5168
1.48	64.3238
1.474	64.1077
1.468	63.8918
1.462	63.7362
1.456	63.4736
1.45	63.1591
1.444	62.9093
1.438	62.7389
1.432	62.5287
1.426	62.4149
1.42	62.2156
1.414	62.0065
1.408	62.0069
1.402	61.9593
1.396	62.4377
1.39	62.89
1.384	63.1083
1.378	63.0961
1.372	62.8862
1.366	62.8147
1.36	62.663
1.354	62.4691
1.348	62.3509
1.342	62.0267
1.336	61.8732
1.33	61.7074
1.324	61.422
1.318	61.2565
1.312	61.1224
1.306	60.8395
1.3	60.6494
1.294	60.4099
1.288	60.2172
1.282	59.9725
1.276	59.7491
1.27	59.5102
1.264	59.331
1.258	59.0184
1.252	58.7954
1.246	58.5398
1.24	58.2539
1.234	58.0358
1.228	57.7624
1.222	57.4823
1.216	57.2007
1.21	56.9891
1.204	56.6985
1.198	56.4885
1.192	56.2243
1.186	55.9872
1.18	55.6779
1.174	55.4813
1.168	55.2257
1.162	55.0089
1.156	54.7592
1.15	54.5334
1.144	54.3457
1.138	54.1955
1.132	53.9339
1.126	53.7442
1.12	53.636
1.114	53.4146
1.108	53.2782
1.102	53.0192
1.096	52.9376
1.09	52.7451
1.084	52.6618
1.078	52.5108
1.072	52.4862
1.066	52.3523
1.06	52.2693
1.054	52.0525
1.048	52.0127
1.042	51.974
1.036	51.892
1.03	51.862
1.024	51.7761
1.018	51.6536
1.012	51.6331
1.006	51.592
1	51.582
0.994	51.4204
0.988	51.3563
0.982	51.2399
0.976	51.1417
0.97	51.0768
0.964	50.8017
0.958	50.7836
0.952	50.6541
0.946	50.4056
0.94	50.3115
0.934	50.1945
0.928	50.0123
0.922	49.9072
0.916	49.7008
0.91	49.5906
0.904	49.5307
0.898	49.4759
0.892	49.4175
0.886	49.4
0.88	49.3885
0.874	49.3573
0.868	49.367
0.862	49.4282
0.856	49.5188
0.85	49.5888
0.844	49.6441
0.838	49.6973
0.832	49.7264
0.826	49.8049
0.82	49.8124
0.814	49.8137
0.808	49.7798
0.802	49.6674
0.796	49.4913
0.79	49.2775
0.784	49.0415
0.778	48.7551
0.772	48.4288
0.766	48.0611
0.76	47.6869
0.754	47.337
0.748	46.9209
0.742	46.5905
0.736	46.2145
0.73	45.8698
0.724	45.5387
0.718	45.2282
0.712	44.9317
0.706	44.6556
0.7	44.4008
0.694	44.1568
0.688	43.906
0.682	43.6898
0.676	43.4531
0.67	43.2291
0.664	42.9759
0.658	42.7292
0.652	42.495
0.646	42.2258
0.64	41.9529
0.634	41.6877
0.628	41.3988
0.622	41.0997
0.616	40.7996
0.61	40.4863
0.604	40.1733
0.598	39.8695
0.592	39.5773
0.586	39.2391
0.58	38.9056
0.574	38.5575
0.568	38.173
0.562	37.7726
0.556	37.2974
0.55	36.7758
0.544	36.1619
0.538	35.455
0.532	34.6642
0.526	33.7319
0.52	32.685
0.514	31.5524
0.508	30.2942
0.502	29.008
0.496	27.7645
0.49	26.7125
0.484	25.7886
0.478	25.063
0.472	24.4562
0.466	23.9531
0.46	23.4979
0.454	22.9375
0.448	22.1531
0.442	21.0474
0.436	19.7315
0.43	18.4339
0.424	17.3708
0.418	16.4946
0.412	15.7993
0.406	15.172
0.4	14.5327
