Name: Montebrasite LiAlPO_4(OH)
Type: Mineral
Class: Phosphates
Particle Size: 45-125um
Sample No.: P-2A
Owner: JPL
Wavelength Range: VNIR-SWIR
Origin: USA, Couth Dakota, Custer County, Custer
Measurement: Hemispherical reflectance
X Units: Wavelength (micrometers)
Y Units: Reflectance (percent)
wavelength	value
0.4	68.68
0.403	68.97
0.406	69.11
0.409	69.28
0.412	69.38
0.415	69.61
0.418	69.82
0.421	69.81
0.424	70.03
0.427	70.14
0.43	70.4
0.433	70.55
0.436	70.53
0.439	70.71
0.442	70.82
0.445	70.88
0.448	71.09
0.451	70.94
0.454	71.08
0.457	71.09
0.46	71.27
0.463	71.26
0.466	71.4
0.469	71.49
0.472	71.46
0.475	71.51
0.478	71.53
0.481	71.68
0.484	71.66
0.487	71.73
0.49	71.79
0.493	71.8
0.496	71.88
0.499	71.96
0.502	71.95
0.505	72.09
0.508	72.01
0.511	72.16
0.514	72.12
0.517	72.26
0.52	72.34
0.523	72.34
0.526	72.26
0.529	72.25
0.532	72.41
0.535	72.42
0.538	72.33
0.541	72.49
0.544	72.44
0.547	72.65
0.55	72.71
0.553	72.65
0.556	72.72
0.559	72.54
0.562	72.96
0.565	73.01
0.568	72.83
0.571	72.98
0.574	72.81
0.577	72.86
0.58	72.91
0.583	72.79
0.586	72.83
0.589	72.93
0.592	73
0.595	73.03
0.598	72.95
0.601	73.13
0.604	73.05
0.607	73.03
0.61	73.13
0.613	73.02
0.616	72.98
0.619	73.05
0.622	72.95
0.625	72.97
0.628	73.12
0.631	72.96
0.634	73
0.637	73.07
0.64	73.03
0.643	73.07
0.646	73.05
0.649	73.05
0.652	73.18
0.655	73.16
0.658	73.11
0.661	73.18
0.664	73.06
0.667	73.04
0.67	73.21
0.673	73.2
0.676	73.22
0.679	73.09
0.682	73.11
0.685	73.14
0.688	73.3
0.691	73.19
0.694	73.24
0.697	73.16
0.7	73.18
0.703	73.21
0.706	73.3
0.709	73.18
0.712	73.27
0.715	73.21
0.718	73.27
0.721	73.23
0.724	73.21
0.727	73.09
0.73	73.17
0.733	73.2
0.736	73.23
0.739	73.29
0.742	73.07
0.745	73.21
0.748	73.18
0.751	73.21
0.754	73.36
0.757	73.17
0.76	73.19
0.763	73.14
0.766	73.18
0.769	73.27
0.772	73.24
0.775	73.28
0.778	73.3
0.781	73.28
0.784	73.26
0.787	73.14
0.79	73.11
0.793	73.25
0.796	73.3
0.799	73.25
0.808	73.49
0.82	73.39
0.832	73.5
0.844	73.6
0.856	73.58
0.868	73.67
0.88	73.66
0.892	73.73
0.904	73.68
0.916	73.72
0.928	73.6
0.94	73.73
0.952	73.67
0.964	73.74
0.976	73.68
0.988	73.68
1	73.78
1.012	73.83
1.024	73.74
1.036	73.75
1.048	73.73
1.06	73.77
1.072	73.87
1.084	73.87
1.096	73.82
1.108	73.76
1.12	73.93
1.132	73.8
1.144	73.72
1.156	73.73
1.168	73.74
1.18	73.72
1.192	73.62
1.204	73.74
1.216	73.68
1.228	73.77
1.24	73.68
1.252	73.59
1.264	73.46
1.276	73.28
1.288	73.03
1.3	73.24
1.312	73.14
1.324	73.1
1.336	72.85
1.348	72.51
1.36	72.85
1.372	73.03
1.384	72.82
1.396	72.46
1.408	71.06
1.42	71.3
1.432	70.65
1.444	69.02
1.456	69.68
1.468	68.8
1.48	68.25
1.492	67.55
1.504	65.63
1.516	63.48
1.528	60.85
1.54	61.4
1.552	64.43
1.564	66.19
1.576	67.13
1.588	67.83
1.6	68.15
1.612	68.46
1.624	68.82
1.636	69.07
1.648	69.19
1.66	69.48
1.672	69.58
1.684	69.59
1.696	69.51
1.708	69.14
1.72	68.03
1.732	67.44
1.744	67.44
1.756	67.2
1.768	67.17
1.78	67.67
1.792	68.38
1.804	68.6
1.816	68.35
1.828	65.78
1.84	61.48
1.852	61.5
1.864	63.64
1.876	64.23
1.888	63.96
1.9	63.53
1.912	63.42
1.924	63.58
1.936	63.56
1.948	63.34
1.96	62.13
1.972	57.68
1.984	50.21
1.996	49.84
2.008	56.75
2.02	60.3
2.032	60.04
2.044	58.83
2.056	58.13
2.068	58.3
2.08	58.72
2.092	58.46
2.104	57.59
2.116	56.52
2.128	54.77
2.14	48.76
2.152	35.39
2.164	22.61
2.176	20.23
2.188	24.07
2.2	29.65
2.212	34.88
2.224	38.78
2.236	42.11
2.248	45.16
2.26	47.36
2.272	49.25
2.284	51.82
2.296	54.95
2.308	57.11
2.32	57.62
2.332	55.51
2.344	47.59
2.356	34.39
2.368	25.87
2.38	30.01
2.392	39.87
2.404	46.98
2.416	49.92
2.428	49.79
2.44	47.57
2.452	44.3
2.464	40.58
2.476	37.42
2.488	35.15
2.5	33.9
