Name: Hemimorphite Zn_4Si_2O_7(OH)_2.H_2O
Type: Mineral
Class: Silicates
Subclass: Sorosilicate
Particle Size: 0-45um
Sample No.: SS-2A
Owner: JPL
Origin: Mexico, Durango, Ojuela Mine
Measurement: Hemispherical reflectance
X Units: Wavelength (micrometers)
Y Units: Reflectance (percent)
wavelength	value
15.3853	2.59296
15.1161	2.74468
14.8563	3.18828
14.6052	2.17843
14.3624	2.35531
14.1276	2.67892
13.9004	3.59046
13.6803	4.71717
13.4671	5.26116
13.2604	5.85231
13.06	6.79656
12.8656	7.57607
12.6769	7.91808
12.4936	7.87496
12.3155	7.82395
12.1425	7.96063
11.9742	7.86815
11.8106	6.73823
11.6513	6.25048
11.4963	7.39886
11.3454	6.01011
11.1983	5.34471
11.0551	5.68989
10.9154	6.3981
10.7793	9.26356
10.6465	9.66144
10.5169	8.54414
10.3904	9.14554
10.267	9.47938
10.1464	9.15144
10.0287	7.65041
9.91364	4.53753
9.80119	2.53702
9.69128	1.83704
9.5838	1.61357
9.47867	2.07246
9.37583	2.55806
9.27519	3.40106
9.17669	5.02154
9.08027	6.80235
8.98585	6.83026
8.89337	3.80726
8.80277	2.67164
8.714	2.89945
8.62701	3.08013
8.54174	4.06102
8.45813	5.15524
8.37614	6.3863
8.29573	7.23553
8.21685	8.22619
8.13946	9.38939
8.0635	11.085
7.98896	12.3774
7.91578	13.9685
7.84392	15.7262
7.77337	16.9229
7.70406	18.1274
7.63598	19.6639
7.5691	21.1468
7.50338	22.3959
7.43879	23.1559
7.37529	22.5481
7.31288	21.0944
7.25152	20.4939
7.19117	20.8998
7.13182	21.5537
7.07344	21.9512
7.01601	21.4283
6.95951	21.4415
6.90391	20.9813
6.84918	21.4005
6.79532	22.2592
6.74231	22.7716
6.69011	23.6917
6.63871	25.29
6.5881	24.8702
6.53825	23.3453
6.48915	21.694
6.44079	21.9163
6.39314	23.5857
6.34618	24.7486
6.29992	22.8477
6.25432	20.1919
6.20938	15.6466
6.16508	9.38792
6.12141	3.95827
6.07835	6.42691
6.0359	12.966
5.99403	18.8544
5.95274	23.4294
5.91201	26.9569
5.87184	29.6102
5.83221	31.1276
5.79311	31.5566
5.75453	31.5396
5.71646	29.2488
5.6789	25.1848
5.64182	26.0635
5.60522	24.7599
5.5691	22.8816
5.53344	26.2545
5.49823	27.9924
5.46347	28.5747
5.42914	27.7862
5.39525	25.3553
5.36177	24.5906
5.32871	24.4473
5.29605	24.8663
5.26379	24.8613
5.23192	25.0975
5.20044	25.5222
5.16933	26.4016
5.13859	28.0095
5.10821	29.114
5.07819	29.8327
5.04852	30.4756
5.0192	30.7658
4.99021	30.2929
4.96156	29.766
4.93324	30.1955
4.90524	30.8695
4.87755	31.7534
4.85017	32.6045
4.8231	33.8781
4.79633	35.3867
4.76986	37.0732
4.74367	38.5334
4.71777	40.1182
4.69216	41.5573
4.66682	43.2365
4.64175	45.1947
4.61695	46.9597
4.59241	48.6418
4.56814	50.254
4.54411	51.7584
4.52034	53.0375
4.49682	54.4551
4.47354	55.6409
4.4505	56.9382
4.4277	58.274
4.40513	59.498
4.38278	60.5319
4.36067	61.5892
4.33877	62.3965
4.3171	63.3103
4.29564	64.1915
4.27439	65.0485
4.25335	65.4484
4.23252	66.5262
4.21189	66.7087
4.19146	67.0099
4.17123	67.4418
4.15119	67.8922
4.13134	68.2632
4.11168	68.5057
4.09221	68.7026
4.07292	68.9127
4.05382	68.666
4.03489	67.8015
4.01614	66.4873
3.99756	63.4238
3.97915	61.5711
3.96091	62.779
3.94284	65.8437
3.92493	67.0253
3.90718	67.3824
3.8896	67.6812
3.87217	67.7987
3.8549	68.0754
3.83777	68.3726
3.82081	69.5073
3.80399	70.6132
3.78731	71.2422
3.77079	71.4587
3.7544	71.3245
3.73816	71.2571
3.72206	71.0844
3.7061	70.8344
3.69027	70.3758
3.67458	70.209
3.65902	69.9741
3.64359	69.6753
3.6283	69.3235
3.61312	68.871
3.59808	68.3492
3.58316	67.7712
3.56836	67.1097
3.55369	66.5122
3.53914	65.6236
3.5247	64.1886
3.51038	62.1589
3.49618	60.7585
3.48209	59.494
3.46812	59.5048
3.45425	59.5153
3.4405	58.5974
3.42686	57.4674
3.41332	56.2463
3.39989	55.1867
3.38657	53.9331
3.37335	52.6643
3.36023	51.0232
3.34721	49.5484
3.3343	49.1782
3.32148	47.6108
3.30876	46.1095
3.29614	44.2412
3.28362	42.4264
3.27119	40.5295
3.25885	38.6781
3.24661	36.8388
3.23446	34.8686
3.22239	33.0095
3.21042	31.0979
3.19854	29.0804
3.18674	27.2258
3.17504	25.0686
3.16341	23.2467
3.15187	21.3452
3.14042	19.5219
3.12905	17.6367
3.11776	15.9072
3.10655	13.9746
3.09542	12.4487
3.08437	11.5125
3.0734	11.6448
3.06251	11.1495
3.0517	10.4653
3.04096	9.6041
3.03029	8.81362
3.0197	8.42235
3.00919	7.70907
2.99875	7.33836
2.98838	6.83234
2.97808	6.47866
2.96785	5.97777
2.95769	5.67211
2.9476	5.19191
2.93758	4.74703
2.92763	4.41974
2.91775	4.26494
2.90793	3.91186
2.89817	3.79829
2.88849	3.56708
2.87886	3.55278
2.8693	3.61619
2.85981	3.50461
2.85038	3.54439
2.841	3.65983
2.83169	4.0691
2.82245	3.90272
2.81326	4.00083
2.80413	4.18171
2.79506	4.33854
2.78605	4.53494
2.77709	4.57697
2.7682	5.29304
2.75936	5.72831
2.75057	7.34519
2.74185	9.88066
2.73318	12.0012
2.72456	15.5945
2.71599	18.5796
2.70748	21.7879
2.69903	24.7671
2.69062	27.8751
2.68227	30.3397
2.67397	32.7258
2.66572	35.7154
2.65753	36.0863
2.64938	37.6926
2.64128	39.2573
2.63323	40.6237
2.62523	41.8431
2.61728	43.5158
2.60938	44.0198
2.60152	44.9265
2.59371	46.9421
2.58595	46.724
2.57824	47.4462
2.57057	48.2581
2.56294	49.4089
2.55536	49.5725
2.54783	50.7435
2.54034	51.0529
2.53289	52.1818
2.52549	52.9285
2.51813	53.8716
2.51082	54.8566
2.50354	55.9993
2.49631	57.0416
2.48912	57.9635
2.48197	59.0657
2.47486	59.8872
2.46779	60.9759
2.46077	61.5849
2.45378	62.2352
2.44683	62.6356
2.43992	63
2.43305	63.5498
2.42622	64.0109
2.41943	64.7471
2.41267	65.273
2.40595	65.8707
2.39928	66.4855
2.39263	67.1724
2.38603	67.7989
2.37946	68.6816
2.37292	69.5232
2.36642	70.721
2.35996	72.1332
2.35353	73.3775
2.34714	74.6778
2.34078	75.8813
2.33446	76.9354
2.32817	77.9905
2.32191	78.4413
2.31569	79.036
2.3095	79.3242
2.30335	79.8196
2.29722	80.0454
2.29113	80.1193
2.28507	80.1601
2.27905	80.3482
2.27305	80.466
2.26709	80.301
2.26116	80.2009
2.25526	80.1021
2.24939	80.0296
2.24355	79.5929
2.23774	79.2684
2.23196	78.9958
2.22621	78.6828
2.22049	78.6571
2.21479	78.8847
2.20913	79.0091
2.2035	79.3474
2.19789	79.8262
2.19232	80.2169
2.18677	80.4814
2.18125	81.339
2.17576	81.888
2.17029	82.2929
2.16486	82.8147
2.15945	83.2476
2.15406	83.4731
2.14871	83.7138
2.14338	84.3409
2.13808	84.6149
2.1328	84.8622
2.12755	85.0293
2.12232	85.3654
2.11712	85.581
2.11195	85.859
2.1068	85.942
2.10168	86.1959
2.09658	85.9956
2.0915	86.0725
2.08645	86.0353
2.08143	86.118
2.07643	86.2399
2.07145	85.8076
2.06649	86.1054
2.06156	85.965
2.05666	86.0075
2.05177	85.5966
2.04691	85.4008
2.04208	85.0487
2.03726	84.8051
2.03247	84.6313
2.0277	84.422
2.02295	83.5605
2.01823	83.332
2.01353	82.6999
2.00885	82.2192
2.00419	81.3394
