Name: Tschermigite (NH_4)Al(SO_4)_2.12H_2O
Type: Mineral
Class: Sulfates
Particle Size: 45-125um
Sample No.: SO-6A
Owner: JPL
Origin: USA, Nevada, Esmeralda County, Silver Peak.
Measurement: Hemispherical reflectance
X Units: Wavelength (micrometers)
Y Units: Reflectance (percent)
wavelength	value
2.5	5.77452
2.494	5.8093
2.488	5.8768
2.482	6.2433
2.476	6.33408
2.47	6.45201
2.464	6.63279
2.458	6.87427
2.452	6.97739
2.446	7.28821
2.44	7.53297
2.434	7.94061
2.428	8.16634
2.422	8.56396
2.416	8.90225
2.41	9.25928
2.404	9.45804
2.398	9.80467
2.392	10.1003
2.386	10.2782
2.38	10.6117
2.374	10.7545
2.368	10.8672
2.362	10.9939
2.356	11.1101
2.35	11.0952
2.344	11.0758
2.338	11.0673
2.332	11.0379
2.326	10.9888
2.32	10.9068
2.314	10.8738
2.308	10.9342
2.302	10.844
2.296	10.9603
2.29	10.8482
2.284	10.8777
2.278	10.9113
2.272	10.9543
2.266	10.9508
2.26	10.9599
2.254	10.9453
2.248	10.8818
2.242	10.9085
2.236	10.8465
2.23	10.7591
2.224	10.8277
2.218	10.7159
2.212	10.9089
2.206	10.681
2.2	10.7315
2.194	10.7405
2.188	10.6229
2.182	10.6235
2.176	10.556
2.17	10.5741
2.164	10.5568
2.158	10.5484
2.152	10.5412
2.146	10.5862
2.14	10.6407
2.134	10.753
2.128	10.7918
2.122	10.8798
2.116	11.0137
2.11	11.082
2.104	11.102
2.098	11.1744
2.092	11.2718
2.086	11.3336
2.08	11.287
2.074	11.4407
2.068	11.3653
2.062	11.3501
2.056	11.3567
2.05	11.2477
2.044	11.0603
2.038	10.7422
2.032	10.3277
2.026	9.89324
2.02	9.44372
2.014	8.88936
2.008	8.44241
2.002	8.11869
1.996	7.75753
1.99	7.52129
1.984	7.52285
1.978	7.46856
1.972	7.58527
1.966	7.65399
1.96	7.92687
1.954	8.1877
1.948	8.36929
1.942	8.84984
1.936	9.35286
1.93	9.96114
1.924	10.6965
1.918	11.7036
1.912	12.5933
1.906	13.5129
1.9	14.5061
1.894	15.3943
1.888	16.0449
1.882	16.6606
1.876	17.1404
1.87	17.5711
1.864	17.9202
1.858	18.2541
1.852	18.5421
1.846	18.7127
1.84	18.8797
1.834	18.9162
1.828	19.0189
1.822	19.0027
1.816	19.1158
1.81	19.154
1.804	19.2481
1.798	19.3763
1.792	19.5457
1.786	19.7834
1.78	20.0677
1.774	20.4971
1.768	20.8077
1.762	21.2414
1.756	21.6243
1.75	22.0825
1.744	22.4355
1.738	22.9364
1.732	23.3669
1.726	23.8434
1.72	24.3263
1.714	24.8011
1.708	25.4125
1.702	25.9014
1.696	26.3902
1.69	26.9831
1.684	27.492
1.678	28.0364
1.672	28.4352
1.666	28.9063
1.66	29.3575
1.654	29.7024
1.648	30.0625
1.642	30.5823
1.636	30.5919
1.63	30.9802
1.624	31.1171
1.618	31.2847
1.612	31.4204
1.606	31.5507
1.6	31.6918
1.594	31.8093
1.588	31.818
1.582	31.8608
1.576	31.983
1.57	31.9875
1.564	32.102
1.558	32.3695
1.552	32.6637
1.546	33.0239
1.54	33.4699
1.534	33.9715
1.528	34.5654
1.522	35.1303
1.516	35.6527
1.51	36.0508
1.504	36.2373
1.498	36.2465
1.492	35.9973
1.486	35.7715
1.48	35.84
1.474	36.3551
1.468	37.0423
1.462	38.0103
1.456	39.3446
1.45	41.1524
1.444	43.698
1.438	46.6433
1.432	49.8561
1.426	53.0339
1.42	56.1341
1.414	58.7924
1.408	61.0658
1.402	62.9739
1.396	64.381
1.39	65.3282
1.384	65.9184
1.378	66.4158
1.372	66.7111
1.366	67.2459
1.36	67.6785
1.354	68.339
1.348	68.9856
1.342	69.8082
1.336	70.5427
1.33	71.3734
1.324	72.2389
1.318	72.9122
1.312	73.4846
1.306	73.9417
1.3	74.2591
1.294	74.4634
1.288	74.5346
1.282	74.6899
1.276	74.6067
1.27	74.4721
1.264	74.3965
1.258	74.3535
1.252	74.3498
1.246	74.3625
1.24	74.592
1.234	74.7013
1.228	74.9265
1.222	75.1489
1.216	75.4195
1.21	75.7862
1.204	76.1918
1.198	76.6787
1.192	77.2653
1.186	77.7287
1.18	78.3109
1.174	78.9379
1.168	79.9569
1.162	80.8427
1.156	81.8024
1.15	82.5901
1.144	83.2189
1.138	83.5561
1.132	83.8389
1.126	84.138
1.12	84.3308
1.114	84.5749
1.108	84.7394
1.102	84.9638
1.096	85.1438
1.09	85.3686
1.084	85.5325
1.078	85.6157
1.072	85.7672
1.066	85.6585
1.06	85.7858
1.054	85.8107
1.048	85.5885
1.042	85.4507
1.036	85.3314
1.03	85.1705
1.024	84.9482
1.018	84.8339
1.012	84.8056
1.006	84.7337
1	84.8774
0.994	85.0904
0.988	85.2521
0.982	85.6199
0.976	86.0765
0.97	86.5388
0.964	86.9879
0.958	87.2357
0.952	87.5413
0.946	87.7521
0.94	87.8656
0.934	88.0573
0.928	88.2002
0.922	88.266
0.916	88.3689
0.91	88.4699
0.904	88.5004
0.898	88.5898
0.892	88.6275
0.886	88.8201
0.88	88.734
0.874	88.9289
0.868	88.9417
0.862	89.0964
0.856	89.3292
0.85	89.3542
0.844	89.4269
0.838	89.5474
0.832	89.5079
0.826	89.5688
0.82	89.5876
0.814	89.5703
0.808	89.6648
0.802	89.6352
0.796	89.5712
0.79	89.6019
0.784	89.609
0.778	89.625
0.772	89.5881
0.766	89.5956
0.76	89.6235
0.754	89.6917
0.748	89.7075
0.742	89.7831
0.736	89.8142
0.73	89.857
0.724	89.8649
0.718	89.8822
0.712	89.9128
0.706	89.8869
0.7	89.9124
0.694	89.8954
0.688	89.9196
0.682	89.893
0.676	89.8766
0.67	89.9162
0.664	89.8717
0.658	89.8591
0.652	89.8691
0.646	89.8527
0.64	89.845
0.634	89.8071
0.628	89.8062
0.622	89.8487
0.616	89.7995
0.61	89.7869
0.604	89.7414
0.598	89.7661
0.592	89.7686
0.586	89.7472
0.58	89.7108
0.574	89.6832
0.568	89.6415
0.562	89.6075
0.556	89.5781
0.55	89.5312
0.544	89.519
0.538	89.4597
0.532	89.4344
0.526	89.3997
0.52	89.3466
0.514	89.3063
0.508	89.2737
0.502	89.2067
0.496	89.1087
0.49	89.0362
0.484	88.9539
0.478	88.866
0.472	88.7749
0.466	88.6101
0.46	88.5002
0.454	88.3361
0.448	88.1513
0.442	87.9364
0.436	87.6822
0.43	87.4858
0.424	87.3777
0.418	87.0923
0.412	86.691
0.406	86.2303
0.4	85.7282
