Name: Quartz SiO_2
Type: Mineral
Class: Silicates
Subclass: Tectosilicates
Particle Size: 125-500um
Sample No.: TS-1B
Owner: JPL
Origin: Brazil, Minas Gerais
Description: Smoky quartz.
Measurement: Hemispherical reflectance
X Units: Wavelength (micrometers)
Y Units: Reflectance (percent)
wavelength	value
15.385	4.0255
15.116	4.3734
14.856	4.5967
14.605	5.0582
14.362	5.0635
14.128	3.595
13.9	4.6832
13.68	5.2236
13.467	5.6563
13.26	6.7592
13.06	8.4253
12.866	14.3301
12.677	11.1927
12.494	14.0065
12.316	1.6079
12.143	2.0022
11.974	2.9417
11.811	3.8988
11.651	4.46
11.496	4.8902
11.345	5.3082
11.198	5.545
11.055	6.0336
10.915	6.5949
10.779	6.9842
10.647	7.3946
10.517	7.8997
10.39	8.4158
10.267	9.1927
10.146	10.0246
10.029	11.047
9.914	12.3503
9.801	14.1292
9.691	16.8181
9.584	20.2005
9.479	27.1143
9.376	44.1727
9.275	59.7147
9.177	62.9053
9.08	64.5127
8.986	65.2266
8.893	65.2087
8.803	62.4723
8.714	57.468
8.627	36.6415
8.542	58.2545
8.458	59.8368
8.376	57.4217
8.296	55.0971
8.217	51.9418
8.139	41.192
8.063	25.5583
7.989	15.6584
7.916	8.5376
7.844	4.5838
7.773	2.6664
7.704	1.4178
7.636	0.5766
7.569	0.3287
7.503	0.0628
7.439	0.0154
7.375	0.0289
7.313	0.0421
7.252	0.0344
7.191	0.0478
7.132	0.1246
7.073	0.2742
7.016	0.4543
6.96	0.4586
6.904	0.5007
6.849	0.4901
6.795	0.525
6.742	0.5662
6.69	0.6174
6.639	0.7228
6.588	0.7585
6.538	0.8375
6.489	0.869
6.441	1.2791
6.393	1.2841
6.346	0.9782
6.3	1.0532
6.254	0.9805
6.209	1.0393
6.165	1.0826
6.121	1.2803
6.078	1.3566
6.036	1.5406
5.994	1.4088
5.953	1.2634
5.912	1.2997
5.872	1.5743
5.832	1.8518
5.793	2.146
5.755	2.6022
5.716	2.8061
5.679	2.4735
5.642	1.736
5.605	1.5896
5.569	1.6229
5.533	1.6876
5.498	1.8037
5.463	2.0925
5.429	1.9519
5.395	1.653
5.362	1.5374
5.329	1.4785
5.296	1.4736
5.264	1.4981
5.232	1.7231
5.2	2.0684
5.169	2.1079
5.139	2.0374
5.108	2.1185
5.078	1.9134
5.049	1.9045
5.019	1.8361
4.99	1.8945
4.962	2.2925
4.933	2.7277
4.905	4.0019
4.878	8.0327
4.85	12.3089
4.823	15.8433
4.796	18.6873
4.77	21.3554
4.744	23.2971
4.718	23.6217
4.692	19.3945
4.667	20.3255
4.642	25.9541
4.617	30.6488
4.592	32.7553
4.568	32.4819
4.544	28.7818
4.52	22.2328
4.497	15.9198
4.474	14.1058
4.45	15.4159
4.428	17.1808
4.405	19.7387
4.383	23.7469
4.361	28.4042
4.339	31.728
4.317	32.6111
4.296	31.701
4.274	32.7904
4.253	34.6836
4.233	34.043
4.212	34.4026
4.191	34.5971
4.171	36.5029
4.151	37.9335
4.131	39.7474
4.112	41.8908
4.092	44.4437
4.073	46.3834
4.054	46.9408
4.035	46.5254
4.016	46.1894
3.998	46.3047
3.979	47.6193
3.961	49.2965
3.943	51.1853
3.925	52.3111
3.907	52.2852
3.89	51.0659
3.872	49.7267
3.855	49.0927
3.838	49.3108
3.821	50.3991
3.804	51.0767
3.787	50.758
3.771	49.6714
3.754	48.5265
3.738	48.3275
3.722	49.326
3.706	51.5518
3.69	54.4313
3.675	57.1865
3.659	59.482
3.644	60.6907
3.628	61.11
3.613	61.4288
3.598	62.0725
3.583	63.0532
3.568	64.254
3.554	65.893
3.539	67.4713
3.525	69.0671
3.51	70.3335
3.496	71.2561
3.482	72.9268
3.468	73.9119
3.454	74.6778
3.441	74.5983
3.427	73.9076
3.413	73.2566
3.4	74.1561
3.387	74.5677
3.373	74.6568
3.36	76.0418
3.347	76.7034
3.334	76.991
3.321	77.0276
3.309	76.577
3.296	76.5346
3.284	76.2038
3.271	76.2074
3.259	76.2614
3.247	76.5533
3.234	76.3957
3.222	76.4647
3.21	76.3135
3.199	76.2557
3.187	75.9815
3.175	75.9307
3.163	75.498
3.152	74.6655
3.14	72.2217
3.129	70.8742
3.118	71.7054
3.107	73.4907
3.095	74.841
3.084	75.283
3.073	74.9283
3.063	73.4298
3.052	71.4131
3.041	69.2805
3.03	68.5143
3.02	68.9514
3.009	69.8878
2.999	71.1952
2.988	71.6306
2.978	71.0865
2.968	67.5698
2.958	65.4518
2.948	69.0104
2.938	70.7541
2.928	71.2687
2.918	71.1317
2.908	72.3072
2.898	73.924
2.888	75.1453
2.879	76.0755
2.869	76.7983
2.86	77.5124
2.85	78.0842
2.841	78.5197
2.832	78.8384
2.822	79.1786
2.813	79.4603
2.804	79.8186
2.795	79.7366
2.786	80.243
2.777	80.2745
2.768	81.0487
2.759	80.7403
2.751	81.463
2.742	82.4348
2.733	82.4743
2.725	83.7273
2.716	83.2959
2.707	83.4132
2.699	83.4466
2.691	83.8935
2.682	83.9981
2.674	84.2508
2.666	85.1023
2.658	84.3072
2.649	84.2376
2.641	84.3719
2.633	84.4872
2.625	84.3008
2.617	84.7667
2.609	84.3716
2.602	84.4339
2.594	85.031
2.586	84.5655
2.578	84.2755
2.571	84.5147
2.563	84.7414
2.555	84.1785
2.548	84.2364
2.54	84.1109
2.533	84.1286
2.525	84.2311
2.518	84.3369
2.511	84.1449
2.504	84.0833
2.496	83.9829
2.489	84.0721
2.482	84.1708
2.475	84.1152
2.468	84.1578
2.461	84.1455
2.454	84.3057
2.447	84.1457
2.44	84.1986
2.433	84.3472
2.426	84.1869
2.419	84.3099
2.413	84.1583
2.406	84.1378
2.399	84.2367
2.393	84.1998
2.386	84.3235
2.379	84.2609
2.373	84.2286
2.366	84.419
2.36	84.3355
2.354	84.2897
2.347	84.1882
2.341	84.2881
2.334	84.3862
2.328	84.2473
2.322	84.2374
2.316	84.4135
2.309	84.2329
2.303	84.295
2.297	84.0942
2.291	84.2424
2.285	84.2693
2.279	84.3477
2.273	84.237
2.267	84.2149
2.261	84.3086
2.255	84.2432
2.249	84.1755
2.244	84.2264
2.238	84.2092
2.232	84.2217
2.226	84.1547
2.22	84.2796
2.215	84.2283
2.209	84.1035
2.204	84.0952
2.198	84.1873
2.192	84.1261
2.187	84.2223
2.181	84.0687
2.176	84.2679
2.17	84.3492
2.165	84.0305
2.159	83.9792
2.154	84.3558
2.149	84.1934
2.143	83.9888
2.138	84.2913
2.133	84.2009
2.128	83.935
2.122	84.2571
2.117	84.315
2.112	83.9165
2.107	84.2213
2.102	84.1589
2.097	84.0052
2.091	84.0478
2.086	84.074
2.081	84.117
2.076	84.2672
2.071	84.3718
2.066	84.1104
2.062	83.9772
2.057	84.1222
2.052	84.2221
2.047	84.0122
2.042	83.9649
2.037	83.9396
2.032	83.7814
2.028	84.1891
2.023	84.0488
2.018	84.0282
2.014	83.6653
2.009	84.0617
2.004	84.0103
