Name: Glauconite (K,Na)(Fe^3+,Al,Mg)_2(Si,Al)_4O_10(OH)_2
Type: Mineral
Class: Silicates
Subclass: Phyllosilicates
Particle Size: 125-500um
Sample No.: PS-19A
Owner: JPL
Wavelength Range: VNIR-SWIR
Origin: USA, New Jersey
Measurement: Hemispherical reflectance
X Units: Wavelength (micrometers)
Y Units: Reflectance (percent)
wavelength	value
0.4	6.49
0.403	6.49
0.406	6.48
0.409	6.47
0.412	6.55
0.415	6.55
0.418	6.71
0.421	6.6
0.424	6.59
0.427	6.71
0.43	6.7
0.433	6.88
0.436	6.78
0.439	6.84
0.442	6.82
0.445	6.86
0.448	6.82
0.451	6.89
0.454	6.86
0.457	6.92
0.46	6.95
0.463	7.06
0.466	7.18
0.469	7.22
0.472	7.39
0.475	7.32
0.478	7.4
0.481	7.38
0.484	7.46
0.487	7.5
0.49	7.57
0.493	7.57
0.496	7.65
0.499	7.62
0.502	7.73
0.505	7.66
0.508	7.59
0.511	7.7
0.514	7.61
0.517	7.64
0.52	7.67
0.523	7.71
0.526	7.7
0.529	7.7
0.532	7.76
0.535	7.74
0.538	7.68
0.541	7.66
0.544	7.66
0.547	7.55
0.55	7.62
0.553	7.55
0.556	7.49
0.559	7.36
0.562	7.45
0.565	7.25
0.568	7.08
0.571	7.08
0.574	6.99
0.577	6.97
0.58	6.79
0.583	6.71
0.586	6.59
0.589	6.43
0.592	6.37
0.595	6.35
0.598	6.29
0.601	6.1
0.604	6
0.607	5.93
0.61	5.96
0.613	5.8
0.616	5.64
0.619	5.57
0.622	5.49
0.625	5.46
0.628	5.34
0.631	5.16
0.634	5.22
0.637	5.12
0.64	5.1
0.643	4.99
0.646	4.99
0.649	4.88
0.652	4.82
0.655	4.81
0.658	4.88
0.661	4.64
0.664	4.53
0.667	4.58
0.67	4.52
0.673	4.46
0.676	4.42
0.679	4.29
0.682	4.23
0.685	4.17
0.688	4.18
0.691	4.23
0.694	4.14
0.697	4.08
0.7	3.93
0.703	3.95
0.706	3.91
0.709	3.9
0.712	3.84
0.715	3.84
0.718	3.8
0.721	3.78
0.724	3.72
0.727	3.73
0.73	3.72
0.733	3.67
0.736	3.55
0.739	3.56
0.742	3.61
0.745	3.49
0.748	3.5
0.751	3.49
0.754	3.49
0.757	3.43
0.76	3.43
0.763	3.49
0.766	3.37
0.769	3.42
0.772	3.36
0.775	3.37
0.778	3.37
0.781	3.3
0.784	3.37
0.787	3.3
0.79	3.36
0.793	3.43
0.796	3.36
0.799	3.39
0.808	3.67
0.82	3.66
0.832	3.62
0.844	3.62
0.856	3.56
0.868	3.39
0.88	3.33
0.892	3.27
0.904	3.27
0.916	3.15
0.928	3.15
0.94	3.04
0.952	2.91
0.964	2.91
0.976	2.84
0.988	2.73
1	2.76
1.012	2.73
1.024	2.67
1.036	2.62
1.048	2.61
1.06	2.55
1.072	2.53
1.084	2.5
1.096	2.44
1.108	2.43
1.12	2.4
1.132	2.3
1.144	2.3
1.156	2.32
1.168	2.31
1.18	2.29
1.192	2.37
1.204	2.42
1.216	2.36
1.228	2.35
1.24	2.32
1.252	2.31
1.264	2.31
1.276	2.42
1.288	2.37
1.3	2.36
1.312	2.37
1.324	2.42
1.336	2.36
1.348	2.35
1.36	2.41
1.372	2.48
1.384	2.45
1.396	2.37
1.408	2.48
1.42	2.47
1.432	2.48
1.444	2.48
1.456	2.54
1.468	2.6
1.48	2.66
1.492	2.76
1.504	2.7
1.516	2.77
1.528	2.77
1.54	2.83
1.552	2.87
1.564	2.95
1.576	3.07
1.588	3.15
1.6	3.22
1.612	3.22
1.624	3.28
1.636	3.34
1.648	3.45
1.66	3.58
1.672	3.63
1.684	3.84
1.696	3.84
1.708	4.06
1.72	4.18
1.732	4.31
1.744	4.42
1.756	4.65
1.768	4.79
1.78	4.94
1.792	5.08
1.804	5.28
1.816	5.51
1.828	5.72
1.84	5.94
1.852	6.05
1.864	6.18
1.876	6.16
1.888	5.78
1.9	5.4
1.912	5.44
1.924	5.85
1.936	6.21
1.948	6.47
1.96	6.76
1.972	7.28
1.984	7.7
1.996	8.07
2.008	8.51
2.02	8.95
2.032	9.33
2.044	9.72
2.056	10.2
2.068	10.53
2.08	10.98
2.092	11.29
2.104	11.6
2.116	12.02
2.128	12.25
2.14	12.49
2.152	12.52
2.164	12.71
2.176	12.71
2.188	12.68
2.2	12.67
2.212	12.5
2.224	12.13
2.236	11.47
2.248	11.1
2.26	11.03
2.272	10.96
2.284	10.04
2.296	8.7
2.308	8.17
2.32	8.74
2.332	9.26
2.344	9.01
2.356	8.63
2.368	8.89
2.38	9.59
2.392	10.25
2.404	10.53
2.416	10.42
2.428	10.11
2.44	9.6
2.452	9.19
2.464	8.84
2.476	8.59
2.488	8.32
2.5	8.19
