Name: Ulexite NaCaB_5O_6(OH)_6.5H_2O
Type: Mineral
Class: Borates
Particle Size: 0-45um
Sample No.: B-3A
Owner: JPL
Origin: USA, California, Kern County, Boron.
Measurement: Hemispherical reflectance
X Units: Wavelength (micrometers)
Y Units: Reflectance (percent)
wavelength	value
2.5	27.9289
2.494	27.4847
2.488	27.2883
2.482	27.3454
2.476	27.3138
2.47	27.8068
2.464	28.0765
2.458	28.7818
2.452	29.7446
2.446	30.7089
2.44	31.5678
2.434	32.3654
2.428	33.0218
2.422	33.632
2.416	34.2767
2.41	34.9423
2.404	35.6881
2.398	36.4945
2.392	37.4686
2.386	38.5127
2.38	39.4847
2.374	40.4541
2.368	41.4496
2.362	42.3119
2.356	43.2137
2.35	44.0507
2.344	44.7333
2.338	45.3822
2.332	45.7996
2.326	46.0929
2.32	46.2935
2.314	46.619
2.308	47.0434
2.302	47.2958
2.296	47.4796
2.29	47.5498
2.284	47.5304
2.278	47.3543
2.272	47.0182
2.266	46.5421
2.26	45.7015
2.254	44.7504
2.248	43.8676
2.242	43.2707
2.236	43.1772
2.23	43.2504
2.224	43.0939
2.218	42.6614
2.212	42.308
2.206	41.5327
2.2	40.7649
2.194	39.6219
2.188	38.2938
2.182	37.2303
2.176	36.4421
2.17	36.2119
2.164	36.5009
2.158	37.0768
2.152	37.8879
2.146	38.5746
2.14	38.6924
2.134	38.1553
2.128	37.3578
2.122	36.9857
2.116	37.3336
2.11	38.1673
2.104	38.9026
2.098	39.4305
2.092	39.9325
2.086	40.3149
2.08	40.6544
2.074	40.8741
2.068	41.2089
2.062	41.476
2.056	41.7092
2.05	41.8642
2.044	41.8653
2.038	41.8299
2.032	41.8156
2.026	41.7298
2.02	41.4251
2.014	40.9194
2.008	40.2118
2.002	39.2371
1.996	37.9424
1.99	36.3214
1.984	34.7579
1.978	33.6917
1.972	32.7615
1.966	31.3285
1.96	29.5521
1.954	28.4207
1.948	29.1658
1.942	31.7232
1.936	35.1895
1.93	38.5773
1.924	41.8628
1.918	44.8319
1.912	47.5108
1.906	50.0932
1.9	52.6311
1.894	54.8522
1.888	56.7764
1.882	58.4103
1.876	59.653
1.87	60.9728
1.864	61.8896
1.858	62.6649
1.852	63.2184
1.846	63.6211
1.84	63.8882
1.834	64.2246
1.828	64.4056
1.822	64.4156
1.816	64.434
1.81	64.4517
1.804	64.2986
1.798	64.1918
1.792	63.9648
1.786	63.6818
1.78	63.5906
1.774	63.5831
1.768	63.6253
1.762	63.7056
1.756	63.7884
1.75	63.9055
1.744	64.0189
1.738	64.2195
1.732	64.2757
1.726	64.3763
1.72	64.4985
1.714	64.5776
1.708	64.5696
1.702	64.7182
1.696	64.7407
1.69	64.7958
1.684	64.8284
1.678	64.919
1.672	65.0251
1.666	65.1681
1.66	65.1359
1.654	65.3402
1.648	65.3974
1.642	65.5954
1.636	65.7227
1.63	65.8306
1.624	65.9951
1.618	66.1654
1.612	66.3995
1.606	66.5613
1.6	66.7733
1.594	66.9692
1.588	67.1395
1.582	67.1716
1.576	67.2725
1.57	67.2542
1.564	67.2247
1.558	66.9774
1.552	66.8519
1.546	66.4487
1.54	66.1643
1.534	66.0013
1.528	65.8343
1.522	65.5675
1.516	65.0892
1.51	64.6322
1.504	64.1047
1.498	63.648
1.492	63.2404
1.486	62.692
1.48	62.0021
1.474	61.3478
1.468	60.9502
1.462	61.0187
1.456	61.6032
1.45	62.3593
1.444	62.7633
1.438	61.7284
1.432	60.5102
1.426	61.6824
1.42	65.4466
1.414	69.1907
1.408	72.3675
1.402	75.1948
1.396	76.9821
1.39	78.9146
1.384	80.1692
1.378	80.9884
1.372	81.4247
1.366	81.8112
1.36	81.9861
1.354	82.2327
1.348	82.3775
1.342	82.7509
1.336	83.3205
1.33	83.8253
1.324	84.2595
1.318	84.7401
1.312	85.2926
1.306	85.5695
1.3	85.8628
1.294	86.072
1.288	86.2491
1.282	86.2114
1.276	86.1496
1.27	86.145
1.264	86.0338
1.258	85.9967
1.252	85.8706
1.246	85.8463
1.24	85.9141
1.234	85.9236
1.228	85.9104
1.222	85.9898
1.216	86.07
1.21	86.148
1.204	86.2602
1.198	86.3266
1.192	86.503
1.186	86.7456
1.18	87.111
1.174	87.6361
1.168	87.9952
1.162	88.4836
1.156	88.8243
1.15	89.1038
1.144	89.2522
1.138	89.4585
1.132	89.5354
1.126	89.549
1.12	89.6936
1.114	89.7151
1.108	89.8308
1.102	89.7891
1.096	89.8838
1.09	89.824
1.084	89.9278
1.078	89.9221
1.072	89.9483
1.066	89.8855
1.06	89.9335
1.054	89.9073
1.048	89.8016
1.042	89.674
1.036	89.6929
1.03	89.5383
1.024	89.3284
1.018	89.2375
1.012	89.0995
1.006	89.0984
1	89.0667
0.994	88.8849
0.988	88.745
0.982	88.5375
0.976	88.3949
0.97	88.7784
0.964	89.2427
0.958	89.6244
0.952	89.8522
0.946	90.031
0.94	90.1055
0.934	90.234
0.928	90.3005
0.922	90.2939
0.916	90.3624
0.91	90.42
0.904	90.3491
0.898	90.4141
0.892	90.4497
0.886	90.4794
0.88	90.4855
0.874	90.5097
0.868	90.6228
0.862	90.6162
0.856	91.1151
0.85	91.1441
0.844	91.1088
0.838	91.0814
0.832	91.0867
0.826	91.0295
0.82	91.112
0.814	91.0512
0.808	91.0913
0.802	91.0283
0.796	90.9365
0.79	90.9459
0.784	90.8989
0.778	90.9197
0.772	90.8171
0.766	90.8576
0.76	90.7878
0.754	90.7537
0.748	90.7371
0.742	90.7363
0.736	90.7847
0.73	90.7653
0.724	90.7519
0.718	90.7386
0.712	90.7365
0.706	90.7169
0.7	90.7076
0.694	90.7019
0.688	90.6668
0.682	90.6454
0.676	90.6385
0.67	90.621
0.664	90.6294
0.658	90.6147
0.652	90.6403
0.646	90.6111
0.64	90.6044
0.634	90.5567
0.628	90.5485
0.622	90.506
0.616	90.4832
0.61	90.4368
0.604	90.4631
0.598	90.4476
0.592	90.466
0.586	90.4122
0.58	90.3638
0.574	90.3103
0.568	90.2387
0.562	90.1563
0.556	90.1004
0.55	90.019
0.544	89.9052
0.538	89.8059
0.532	89.695
0.526	89.5727
0.52	89.4221
0.514	89.2743
0.508	89.1042
0.502	89.0156
0.496	88.7768
0.49	88.7707
0.484	88.5608
0.478	88.3829
0.472	88.1821
0.466	87.9374
0.46	87.7951
0.454	87.6235
0.448	87.4261
0.442	87.1285
0.436	86.9078
0.43	86.6874
0.424	86.4025
0.418	86.1259
0.412	85.8327
0.406	85.5286
0.4	85.2042
