Name: Glaucophane Na_2(Mg,Fe^2+)_3Al_2Si_8O_22(OH)_2
Type: Mineral
Class: Silicates
Subclass: Inosilicates
Particle Size: 0-45um
Sample No.: IN-3A
Owner: JPL
Wavelength Range: VNIR-SWIR
Origin: USA, California
Measurement: Hemispherical reflectance
X Units: Wavelength (micrometers)
Y Units: Reflectance (percent)
wavelength	value
0.4	21.61
0.403	22.31
0.406	22.82
0.409	23.09
0.412	23.6
0.415	24.06
0.418	24.53
0.421	25.03
0.424	25.55
0.427	25.72
0.43	26.21
0.433	26.51
0.436	26.62
0.439	26.93
0.442	27.52
0.445	27.81
0.448	27.9
0.451	28.08
0.454	28.35
0.457	28.6
0.46	28.75
0.463	28.94
0.466	29.14
0.469	29.21
0.472	29.26
0.475	29.58
0.478	29.48
0.481	29.55
0.484	29.86
0.487	29.88
0.49	29.91
0.493	29.91
0.496	30.07
0.499	30.13
0.502	30.25
0.505	30.29
0.508	30.35
0.511	30.28
0.514	30.39
0.517	30.39
0.52	30.55
0.523	30.53
0.526	30.34
0.529	30.38
0.532	30.22
0.535	30.35
0.538	30.37
0.541	30.57
0.544	30.32
0.547	30.39
0.55	30.33
0.553	30.39
0.556	30.55
0.559	30.53
0.562	30.63
0.565	30.61
0.568	30.53
0.571	30.47
0.574	30.6
0.577	30.41
0.58	30.46
0.583	30.38
0.586	30.34
0.589	30.31
0.592	30.34
0.595	30.49
0.598	30.33
0.601	30.37
0.604	30.39
0.607	30.34
0.61	30.17
0.613	30.31
0.616	30.27
0.619	30.05
0.622	30.17
0.625	30.07
0.628	30.04
0.631	30.19
0.634	29.98
0.637	30.09
0.64	30.06
0.643	30.07
0.646	30.03
0.649	30.08
0.652	30.23
0.655	30.21
0.658	30.19
0.661	30.23
0.664	30.23
0.667	30.33
0.67	30.46
0.673	30.44
0.676	30.44
0.679	30.65
0.682	30.63
0.685	30.68
0.688	30.91
0.691	30.86
0.694	30.97
0.697	31.05
0.7	31.06
0.703	31.17
0.706	31.38
0.709	31.44
0.712	31.61
0.715	31.71
0.718	31.75
0.721	32.03
0.724	32.05
0.727	32.21
0.73	32.37
0.733	32.47
0.736	32.47
0.739	32.58
0.742	32.87
0.745	32.91
0.748	33.07
0.751	33.37
0.754	33.32
0.757	33.35
0.76	33.6
0.763	33.54
0.766	33.68
0.769	33.85
0.772	33.87
0.775	33.87
0.778	33.87
0.781	34.07
0.784	34.26
0.787	34.2
0.79	34.34
0.793	34.24
0.796	34.26
0.799	34.45
0.808	34.49
0.82	34.53
0.832	34.63
0.844	34.82
0.856	34.97
0.868	35.23
0.88	35.49
0.892	35.8
0.904	35.98
0.916	36.39
0.928	36.66
0.94	36.85
0.952	37.1
0.964	37.35
0.976	37.52
0.988	37.74
1	37.9
1.012	38.1
1.024	38.38
1.036	38.65
1.048	38.89
1.06	39.24
1.072	39.44
1.084	39.92
1.096	40.17
1.108	40.57
1.12	41.01
1.132	41.4
1.144	41.82
1.156	42.19
1.168	42.71
1.18	43.06
1.192	43.4
1.204	43.96
1.216	44.31
1.228	44.7
1.24	45.11
1.252	45.47
1.264	45.82
1.276	46.22
1.288	46.55
1.3	46.77
1.312	47.14
1.324	47.47
1.336	47.78
1.348	47.96
1.36	48.25
1.372	48.57
1.384	48.53
1.396	47.51
1.408	48.06
1.42	49.14
1.432	49.41
1.444	49.62
1.456	49.69
1.468	49.92
1.48	50.18
1.492	50.36
1.504	50.61
1.516	50.79
1.528	50.9
1.54	51.04
1.552	51.19
1.564	51.35
1.576	51.51
1.588	51.64
1.6	51.89
1.612	51.93
1.624	51.92
1.636	52.18
1.648	52.3
1.66	52.4
1.672	52.58
1.684	52.61
1.696	52.73
1.708	52.88
1.72	52.93
1.732	52.97
1.744	52.95
1.756	53.07
1.768	53.13
1.78	53.12
1.792	53.22
1.804	53.44
1.816	53.24
1.828	53.38
1.84	53.49
1.852	53.42
1.864	53.37
1.876	53.35
1.888	53.32
1.9	53.14
1.912	53.03
1.924	52.9
1.936	52.84
1.948	52.77
1.96	53
1.972	53.14
1.984	53.1
1.996	53.29
2.008	53.46
2.02	53.62
2.032	53.76
2.044	53.85
2.056	53.9
2.068	54.14
2.08	54.16
2.092	54.09
2.104	54.22
2.116	54.41
2.128	54.32
2.14	54.14
2.152	53.83
2.164	53.58
2.176	53.52
2.188	53.13
2.2	53.01
2.212	52.78
2.224	52.31
2.236	51.63
2.248	50.8
2.26	50.22
2.272	49.67
2.284	48.71
2.296	47.36
2.308	46.19
2.32	45.99
2.332	46.6
2.344	47.75
2.356	48.85
2.368	49.46
2.38	49.68
2.392	50
2.404	50.37
2.416	50.75
2.428	50.69
2.44	50.44
2.452	50.23
2.464	49.87
2.476	49.6
2.488	49.49
2.5	49.56
