Name: Anorthite (Feldspar) (NaSi,CaAl)AlSi_2O_8
Type: Mineral
Class: Silicates
Subclass: Tectosilicates
Particle Size: 125-500um
Sample No.: TS-5A
Owner: JPL
Wavelength Range: VNIR-SWIR
Measurement: Hemispherical reflectance
X Units: Wavelength (micrometers)
Y Units: Reflectance (percent)
wavelength	value
0.4	33.4
0.403	34.15
0.406	34.64
0.409	34.84
0.412	35.4
0.415	35.71
0.418	35.87
0.421	36.26
0.424	36.75
0.427	37.32
0.43	37.66
0.433	38.21
0.436	38.7
0.439	38.9
0.442	39.1
0.445	39.44
0.448	39.64
0.451	39.87
0.454	40.3
0.457	40.79
0.46	40.97
0.463	41.32
0.466	41.7
0.469	41.99
0.472	42.28
0.475	42.53
0.478	42.68
0.481	42.87
0.484	43.21
0.487	43.52
0.49	43.71
0.493	43.9
0.496	44.35
0.499	44.42
0.502	44.63
0.505	45.11
0.508	45.22
0.511	45.46
0.514	45.8
0.517	46.03
0.52	46.09
0.523	46.29
0.526	46.58
0.529	46.64
0.532	46.76
0.535	46.84
0.538	46.96
0.541	46.9
0.544	47.17
0.547	47.27
0.55	47.3
0.553	47.51
0.556	47.56
0.559	47.6
0.562	47.94
0.565	47.99
0.568	47.85
0.571	47.68
0.574	47.69
0.577	47.73
0.58	47.55
0.583	47.64
0.586	47.76
0.589	47.7
0.592	47.73
0.595	47.91
0.598	47.73
0.601	47.95
0.604	48
0.607	47.91
0.61	47.85
0.613	47.99
0.616	47.9
0.619	47.82
0.622	47.9
0.625	47.93
0.628	47.96
0.631	48.02
0.634	47.87
0.637	47.79
0.64	47.93
0.643	48.05
0.646	47.84
0.649	47.96
0.652	47.99
0.655	47.91
0.658	47.96
0.661	47.93
0.664	47.93
0.667	47.96
0.67	48.02
0.673	47.96
0.676	47.96
0.679	48.14
0.682	48.11
0.685	47.96
0.688	47.99
0.691	47.96
0.694	47.96
0.697	47.93
0.7	47.95
0.703	47.81
0.706	47.76
0.709	47.7
0.712	47.62
0.715	47.73
0.718	47.5
0.721	47.58
0.724	47.58
0.727	47.53
0.73	47.38
0.733	47.3
0.736	47.44
0.739	47.22
0.742	47.24
0.745	47.29
0.748	47.1
0.751	47.02
0.754	47.16
0.757	46.93
0.76	46.79
0.763	46.76
0.766	46.64
0.769	46.56
0.772	46.64
0.775	46.56
0.778	46.3
0.781	46.44
0.784	46.19
0.787	46.16
0.79	45.99
0.793	46.13
0.796	45.9
0.799	45.89
0.808	45.99
0.82	45.66
0.832	45.37
0.844	45.19
0.856	45.07
0.868	44.91
0.88	44.89
0.892	45.06
0.904	45.07
0.916	45.15
0.928	45.15
0.94	45.27
0.952	45.18
0.964	45.21
0.976	44.97
0.988	44.77
1	44.46
1.012	44.06
1.024	43.73
1.036	43.44
1.048	43.1
1.06	42.82
1.072	42.63
1.084	42.33
1.096	42.08
1.108	41.98
1.12	41.79
1.132	41.78
1.144	41.56
1.156	41.55
1.168	41.51
1.18	41.54
1.192	41.63
1.204	41.82
1.216	42
1.228	42.08
1.24	42.18
1.252	42.39
1.264	42.54
1.276	42.83
1.288	43.04
1.3	43.31
1.312	43.56
1.324	43.8
1.336	44.08
1.348	44.33
1.36	44.6
1.372	44.8
1.384	44.17
1.396	42.57
1.408	42.36
1.42	44.09
1.432	44.83
1.444	45.42
1.456	45.8
1.468	45.95
1.48	46.32
1.492	47.24
1.504	47.67
1.516	48.01
1.528	48.39
1.54	48.47
1.552	48.67
1.564	48.75
1.576	48.81
1.588	48.98
1.6	49.18
1.612	49.29
1.624	49.37
1.636	49.35
1.648	49.41
1.66	49.46
1.672	49.62
1.684	49.76
1.696	49.81
1.708	49.9
1.72	50.05
1.732	50.12
1.744	50.24
1.756	50.29
1.768	50.42
1.78	50.39
1.792	50.43
1.804	50.38
1.816	50.37
1.828	50.25
1.84	50.17
1.852	50.09
1.864	49.73
1.876	48.93
1.888	47.36
1.9	45.26
1.912	44.02
1.924	44.28
1.936	44.96
1.948	45.44
1.96	45.86
1.972	46.36
1.984	46.81
1.996	47.3
2.008	47.79
2.02	48.3
2.032	48.83
2.044	49.2
2.056	49.49
2.068	49.73
2.08	50.03
2.092	50.08
2.104	50.05
2.116	50.1
2.128	49.93
2.14	49.76
2.152	49.21
2.164	48.18
2.176	47
2.188	46.18
2.2	46.07
2.212	45.94
2.224	45.24
2.236	44.1
2.248	43.08
2.26	42.56
2.272	42.25
2.284	41.63
2.296	40.69
2.308	39.11
2.32	37.39
2.332	35.63
2.344	34.69
2.356	34.75
2.368	35.82
2.38	37.17
2.392	38.11
2.404	38.56
2.416	38.56
2.428	38.15
2.44	37.53
2.452	36.92
2.464	36.43
2.476	36.15
2.488	36.23
2.5	36.27
