Name: Strontianite SrCO_3
Type: Mineral
Class: Carbonates
Particle Size: 45-125um
Sample No.: C-1A
Owner: JPL
Wavelength Range: VNIR-SWIR
Origin: Germany, Westphalia, Hamm
Measurement: Hemispherical reflectance
X Units: Wavelength (micrometers)
Y Units: Reflectance (percent)
wavelength	value
0.4	74.45
0.403	74.78
0.406	75.36
0.409	75.93
0.412	76.11
0.415	76.8
0.418	76.86
0.421	77.15
0.424	77.43
0.427	77.37
0.43	77.89
0.433	77.89
0.436	78.3
0.439	78.41
0.442	78.87
0.445	79.62
0.448	79.16
0.451	79.85
0.454	80.14
0.457	79.97
0.46	80.44
0.463	80.22
0.466	80.74
0.469	80.86
0.472	80.86
0.475	81.33
0.478	81.05
0.481	81.51
0.484	81.34
0.487	81.63
0.49	82.28
0.493	81.94
0.496	82.45
0.499	82.58
0.502	82.69
0.505	83.1
0.508	82.46
0.511	83.33
0.514	82.98
0.517	83.39
0.52	83.5
0.523	83.16
0.526	83.9
0.529	83.67
0.532	84.25
0.535	84.13
0.538	84.25
0.541	84.54
0.544	84.13
0.547	85
0.55	84.42
0.553	84.54
0.556	84.65
0.559	84.83
0.562	85.4
0.565	84.94
0.568	85.45
0.571	85.34
0.574	85.4
0.577	85.51
0.58	85.06
0.583	85.74
0.586	85.29
0.589	85.29
0.592	85.57
0.595	85.23
0.598	85.8
0.601	85.51
0.604	85.92
0.607	86.32
0.61	85.86
0.613	86.38
0.616	86.61
0.619	86.5
0.622	86.96
0.625	86.44
0.628	86.9
0.631	86.44
0.634	86.73
0.637	86.79
0.64	86.73
0.643	87.36
0.646	86.96
0.649	87.01
0.652	87.47
0.655	87.07
0.658	87.36
0.661	87.18
0.664	87.18
0.667	87.65
0.67	87.24
0.673	87.7
0.676	87.53
0.679	87.47
0.682	87.99
0.685	87.65
0.688	87.82
0.691	87.65
0.694	88.05
0.697	87.94
0.7	87.82
0.703	88.34
0.706	88.05
0.709	87.82
0.712	88.46
0.715	88.17
0.718	87.94
0.721	87.94
0.724	87.88
0.727	88.23
0.73	87.99
0.733	88.28
0.736	88.4
0.739	88.11
0.742	88.63
0.745	88.11
0.748	88.57
0.751	87.82
0.754	88.05
0.757	88.46
0.76	88.05
0.763	88.34
0.766	87.99
0.769	88.57
0.772	88.4
0.775	88.46
0.778	88.4
0.781	88.17
0.784	88.74
0.787	88.11
0.79	88.63
0.793	88.46
0.796	88.46
0.799	87.99
0.808	88.05
0.82	88.05
0.832	88.11
0.844	88.34
0.856	88.4
0.868	88.51
0.88	88.51
0.892	88.51
0.904	88.57
0.916	88.51
0.928	88.68
0.94	88.68
0.952	88.85
0.964	88.85
0.976	88.97
0.988	89.08
1	89.14
1.012	89.14
1.024	89.2
1.036	89.32
1.048	89.37
1.06	89.26
1.072	89.43
1.084	89.49
1.096	89.61
1.108	89.55
1.12	89.72
1.132	89.72
1.144	89.78
1.156	89.65
1.168	89.74
1.18	89.84
1.192	89.83
1.204	89.81
1.216	89.92
1.228	90.04
1.24	90.04
1.252	90.09
1.264	90.12
1.276	90.22
1.288	90.13
1.3	90.11
1.312	90.1
1.324	90.13
1.336	90.17
1.348	90.14
1.36	90.19
1.372	90.31
1.384	90.02
1.396	90.02
1.408	89.93
1.42	89.95
1.432	89.91
1.444	90.1
1.456	89.94
1.468	90
1.48	90.05
1.492	90.17
1.504	90.11
1.516	90.05
1.528	90.23
1.54	90.23
1.552	90.34
1.564	90.11
1.576	90.28
1.588	90.34
1.6	90.52
1.612	90.5
1.624	90.36
1.636	90.46
1.648	90.31
1.66	90.46
1.672	90.27
1.684	90.19
1.696	90.23
1.708	90.16
1.72	89.99
1.732	89.87
1.744	89.82
1.756	89.76
1.768	89.87
1.78	90.16
1.792	90.05
1.804	89.96
1.816	89.59
1.828	89.22
1.84	88.72
1.852	88.08
1.864	87.03
1.876	86.04
1.888	86.47
1.9	87.37
1.912	87.86
1.924	87.95
1.936	87.93
1.948	87.9
1.96	87.51
1.972	87.27
1.984	86.88
1.996	85.89
2.008	85.84
2.02	87.48
2.032	88.81
2.044	89.63
2.056	89.86
2.068	90.02
2.08	90.03
2.092	89.8
2.104	89.64
2.116	89.35
2.128	88.84
2.14	88.13
2.152	86.41
2.164	84.86
2.176	84.73
2.188	85.42
2.2	85.41
2.212	84.29
2.224	82.9
2.236	81.31
2.248	79.41
2.26	77.18
2.272	75.13
2.284	73.07
2.296	70.84
2.308	68.25
2.32	65.47
2.332	63.12
2.344	63.77
2.356	67.88
2.368	73.77
2.38	78.67
2.392	80.98
2.404	81.36
2.416	80.73
2.428	79.48
2.44	77.13
2.452	73.88
2.464	69.96
2.476	66.38
2.488	63.58
2.5	62.02
