Name: Orthoclase (Feldspar) (K,Na)AlSi_3O_8
Type: Mineral
Class: Silicates
Subclass: Tectosilicates
Particle Size: 0-45um
Sample No.: TS-12A
Owner: JPL
Origin: India.
Measurement: Hemispherical reflectance
X Units: Wavelength (micrometers)
Y Units: Reflectance (percent)
wavelength	value
2.5	79.0126
2.494	78.9893
2.488	79.11
2.482	78.9449
2.476	79.1956
2.47	79.3505
2.464	79.5282
2.458	79.4532
2.452	79.6416
2.446	79.4802
2.44	79.7024
2.434	79.8834
2.428	79.9107
2.422	80.0295
2.416	80.1701
2.41	80.1833
2.404	80.2948
2.398	80.3459
2.392	80.5409
2.386	80.6212
2.38	80.7201
2.374	80.819
2.368	80.9267
2.362	80.9798
2.356	81.1195
2.35	81.119
2.344	81.1379
2.338	81.1759
2.332	81.1234
2.326	81.1928
2.32	81.0367
2.314	81.0789
2.308	81.0074
2.302	80.927
2.296	81.0494
2.29	80.9695
2.284	80.8679
2.278	80.8957
2.272	80.8319
2.266	80.83
2.26	80.8811
2.254	80.8699
2.248	80.7846
2.242	80.838
2.236	80.8757
2.23	81.0225
2.224	80.9331
2.218	81.1069
2.212	81.1649
2.206	81.2633
2.2	81.4657
2.194	81.5335
2.188	81.5959
2.182	81.8695
2.176	81.9689
2.17	82.0056
2.164	82.3358
2.158	82.3775
2.152	82.5619
2.146	82.5263
2.14	82.586
2.134	82.4683
2.128	82.3405
2.122	82.0914
2.116	81.8571
2.11	81.5546
2.104	81.3499
2.098	81.229
2.092	81.2914
2.086	81.3293
2.08	81.3719
2.074	81.4133
2.068	81.51
2.062	81.6077
2.056	81.7056
2.05	81.6113
2.044	81.8278
2.038	81.8221
2.032	81.8747
2.026	81.8657
2.02	81.8103
2.014	81.7922
2.008	81.7762
2.002	81.7693
1.996	81.7081
1.99	81.6489
1.984	81.5419
1.978	81.5932
1.972	81.3947
1.966	81.4233
1.96	81.3096
1.954	81.3919
1.948	81.3333
1.942	81.2101
1.936	81.2102
1.93	81.2164
1.924	81.2121
1.918	81.2774
1.912	81.3463
1.906	81.5732
1.9	81.7076
1.894	81.9398
1.888	82.0812
1.882	82.1745
1.876	82.2455
1.87	82.2891
1.864	82.4671
1.858	82.4923
1.852	82.5269
1.846	82.4587
1.84	82.522
1.834	82.5438
1.828	82.585
1.822	82.5272
1.816	82.6036
1.81	82.5904
1.804	82.5746
1.798	82.645
1.792	82.5262
1.786	82.6478
1.78	82.5227
1.774	82.5563
1.768	82.5298
1.762	82.5102
1.756	82.5173
1.75	82.5481
1.744	82.5907
1.738	82.6347
1.732	82.6272
1.726	82.6432
1.72	82.6859
1.714	82.6236
1.708	82.6083
1.702	82.5694
1.696	82.6396
1.69	82.579
1.684	82.6546
1.678	82.5385
1.672	82.5974
1.666	82.6705
1.66	82.5798
1.654	82.6079
1.648	82.6626
1.642	82.5898
1.636	82.5475
1.63	82.6069
1.624	82.6758
1.618	82.5595
1.612	82.6467
1.606	82.6848
1.6	82.6608
1.594	82.6457
1.588	82.6012
1.582	82.6133
1.576	82.5963
1.57	82.5997
1.564	82.5876
1.558	82.6439
1.552	82.5622
1.546	82.5898
1.54	82.5704
1.534	82.628
1.528	82.5533
1.522	82.6038
1.516	82.5138
1.51	82.5123
1.504	82.4968
1.498	82.5626
1.492	82.5089
1.486	82.4488
1.48	82.4515
1.474	82.4341
1.468	82.4219
1.462	82.4154
1.456	82.4615
1.45	82.3601
1.444	82.3663
1.438	82.3947
1.432	82.3667
1.426	82.3278
1.42	82.343
1.414	82.3332
1.408	82.3727
1.402	82.4187
1.396	82.4885
1.39	82.5527
1.384	82.592
1.378	82.5232
1.372	82.5393
1.366	82.5233
1.36	82.502
1.354	82.4837
1.348	82.4935
1.342	82.5002
1.336	82.3806
1.33	82.5382
1.324	82.5123
1.318	82.4479
1.312	82.4774
1.306	82.4867
1.3	82.4739
1.294	82.4441
1.288	82.4205
1.282	82.3907
1.276	82.4352
1.27	82.3925
1.264	82.351
1.258	82.3857
1.252	82.3845
1.246	82.3099
1.24	82.2831
1.234	82.3731
1.228	82.3432
1.222	82.3579
1.216	82.2879
1.21	82.2354
1.204	82.2511
1.198	82.2859
1.192	82.2421
1.186	82.234
1.18	82.2416
1.174	82.1515
1.168	82.2444
1.162	82.2737
1.156	82.1945
1.15	82.2746
1.144	82.2161
1.138	82.2283
1.132	82.2458
1.126	82.1792
1.12	82.2593
1.114	82.2443
1.108	82.252
1.102	82.1589
1.096	82.2511
1.09	82.217
1.084	82.1823
1.078	82.2745
1.072	82.2109
1.066	82.2518
1.06	82.2116
1.054	82.2276
1.048	82.249
1.042	82.2312
1.036	82.1872
1.03	82.2755
1.024	82.3115
1.018	82.2588
1.012	82.2481
1.006	82.2222
1	82.2597
0.994	82.2072
0.988	82.2356
0.982	82.2214
0.976	82.2504
0.97	82.181
0.964	82.2391
0.958	82.2079
0.952	82.2387
0.946	82.3548
0.94	82.2878
0.934	82.2313
0.928	82.2822
0.922	82.2239
0.916	82.3205
0.91	82.2792
0.904	82.2879
0.898	82.328
0.892	82.2013
0.886	82.2438
0.88	82.2742
0.874	82.2702
0.868	82.2523
0.862	82.3384
0.856	82.4136
0.85	82.4175
0.844	82.378
0.838	82.3892
0.832	82.4087
0.826	82.425
0.82	82.4029
0.814	82.3748
0.808	82.4432
0.802	82.4331
0.796	82.3299
0.79	82.3138
0.784	82.2816
0.778	82.2982
0.772	82.2692
0.766	82.2504
0.76	82.2774
0.754	82.2146
0.748	82.1911
0.742	82.1742
0.736	82.1405
0.73	82.1401
0.724	82.1145
0.718	82.1272
0.712	82.0753
0.706	82.0802
0.7	82.0635
0.694	82.008
0.688	81.9983
0.682	81.9499
0.676	81.9349
0.67	81.914
0.664	81.8755
0.658	81.8848
0.652	81.8178
0.646	81.7889
0.64	81.7749
0.634	81.7322
0.628	81.7231
0.622	81.6683
0.616	81.6288
0.61	81.5948
0.604	81.552
0.598	81.5526
0.592	81.547
0.586	81.477
0.58	81.4261
0.574	81.3374
0.568	81.2561
0.562	81.1711
0.556	81.0481
0.55	80.9297
0.544	80.8167
0.538	80.7127
0.532	80.5771
0.526	80.4704
0.52	80.3371
0.514	80.2152
0.508	80.0545
0.502	79.8954
0.496	79.7395
0.49	79.5701
0.484	79.3995
0.478	79.2488
0.472	79.1086
0.466	78.9675
0.46	78.7708
0.454	78.6165
0.448	78.372
0.442	78.1424
0.436	77.9091
0.43	77.6372
0.424	77.3658
0.418	77.0991
0.412	76.8574
0.406	76.6466
0.4	76.3811
