Name: Red-orange sandy loam
Type: Soils
Class: Entisol
Particle Size: see additional information
Sample No.: fgg037
Owner: University of NSW
Origin: Fowlers Gap, western New South Wales, Australia
Description: Parent material consists of aeolian silts/clays within vegetated zone.
Measurement: Directional hemispherical reflectance
X Units: Wavelength (micrometers)
Y Units: Reflectance (percent)
wavelength	value
14.0131	1.39729
13.7895	1.59199
13.5729	1.8031
13.363	1.54209
13.1595	1.98527
12.9621	2.0087
12.7705	2.25214
12.5845	2.08901
12.4039	1.66063
12.2284	1.55883
12.0578	1.71405
11.8918	1.93785
11.7304	2.23724
11.5733	2.32752
11.4203	2.37848
11.2714	2.29073
11.1263	2.65393
10.9848	2.70104
10.8469	2.46575
10.7125	2.61085
10.5813	2.61912
10.4533	2.8772
10.3284	3.39038
10.2064	3.61327
10.0872	4.50166
9.9708	5.10969
9.8571	5.53183
9.7459	6.43117
9.6372	7.34397
9.5309	8.10067
9.427	8.42779
9.3252	8.86541
9.2257	8.127
9.1282	7.47581
9.0328	6.73494
8.9394	6.86125
8.8478	7.65679
8.7582	7.59529
8.6703	6.71359
8.5842	6.8599
8.4997	7.77599
8.4169	8.33609
8.3357	9.41034
8.2561	10.5501
8.178	10.934
8.1013	8.35837
8.0261	6.05421
7.9522	4.5918
7.8797	3.44696
7.8085	2.95372
7.7386	2.61727
7.6699	2.76318
7.6024	2.68921
7.5361	2.63312
7.4709	2.69977
7.4069	2.7798
7.344	2.85366
7.2821	2.86021
7.2212	2.87539
7.1614	2.56336
7.1025	2.59956
7.0446	2.44397
6.9877	2.38675
6.9316	2.32395
6.8764	2.44757
6.8222	2.48226
6.7687	2.40034
6.7161	2.55215
6.6643	2.64022
6.6133	2.76111
6.5631	2.78233
6.5136	3.11384
6.4649	3.54994
6.4169	4.17675
6.3696	3.53455
6.323	2.82963
6.277	2.38514
6.2318	2.03958
6.1872	1.72048
6.1432	1.53967
6.0998	1.40832
6.0571	1.51942
6.0149	1.68398
5.9733	1.9798
5.9323	2.22935
5.8919	2.92918
5.852	3.67346
5.8126	4.53953
5.7738	5.57895
5.7354	6.10017
5.6976	6.55204
5.6603	5.95013
5.6235	5.0516
5.5871	4.80719
5.5512	4.8573
5.5158	5.36655
5.4808	6.04672
5.4463	6.46087
5.4121	5.70409
5.3785	4.5518
5.3452	4.38405
5.3123	4.48102
5.2799	4.95204
5.2478	5.75758
5.2161	7.20851
5.1848	7.49902
5.1539	7.61441
5.1234	7.6283
5.0932	7.47313
5.0633	7.17137
5.0338	7.17729
5.0047	7.38505
4.9759	7.96495
4.9474	9.37504
4.9192	10.4569
4.8914	13.1543
4.8638	15.3317
4.8366	16.6063
4.8097	17.2197
4.7831	17.9571
4.7567	18.3366
4.7307	18.6459
4.7049	18.4788
4.6795	17.9452
4.6543	18.9654
4.6293	19.8307
4.6047	20.4159
4.5802	20.8269
4.5561	20.842
4.5322	20.4867
4.5086	19.508
4.4852	18.8897
4.462	18.9304
4.4391	19.758
4.4164	20.3591
4.3939	21.1932
4.3717	22.0934
4.3497	22.4757
4.3279	21.6845
4.3063	19.5438
4.285	18.4162
4.2638	18.7911
4.2429	17.5377
4.2222	18.5534
4.2017	24.4146
4.1813	26.5542
4.1612	27.1632
4.1412	27.6482
4.1215	28.0898
4.1019	28.6077
4.0826	29.0433
4.0634	29.4062
4.0443	29.4609
4.0255	29.261
4.0068	28.7727
3.9883	27.6309
3.97	27.7331
3.9519	28.7164
3.9339	29.7206
3.916	29.9087
3.8984	29.82
3.8809	29.5831
3.8635	29.4542
3.8463	29.2815
3.8293	29.1552
3.8124	29.1024
3.7956	28.8692
3.779	28.5027
3.7626	28.0022
3.7463	27.3444
3.7301	26.9144
3.7141	26.413
3.6982	25.9196
3.6824	25.4813
3.6668	25.1246
3.6513	24.501
3.6359	23.9604
3.6207	23.3139
3.6056	22.6239
3.5906	21.9484
3.5758	21.3247
3.561	20.6159
3.5464	19.861
3.5319	19.1062
3.5175	18.1281
3.5033	17.0538
3.4891	16.6108
3.4751	15.9288
3.4612	15.4135
3.4474	14.8029
3.4337	14.0387
3.4201	13.0819
3.4066	12.5655
3.3932	12.2769
3.3799	11.7659
3.3668	11.0762
3.3537	10.7026
3.3407	10.3064
3.3279	9.8034
3.3151	9.35752
3.3024	8.83757
3.2899	8.23875
3.2774	7.8019
3.265	7.28096
3.2527	6.83663
3.2405	6.46445
3.2284	6.08049
3.2164	5.62465
3.2045	5.23075
3.1926	5.03653
3.1809	4.68976
3.1692	4.43232
3.1576	4.17833
3.1461	3.92928
3.1347	3.78047
3.1234	3.48867
3.1121	3.37802
3.101	3.18664
3.0899	3.11411
3.0789	3.03664
3.068	2.94718
3.0571	2.78868
3.0463	2.90223
3.0356	2.63221
3.025	2.65333
3.0144	2.45667
3.004	2.6233
2.9936	2.40563
2.9832	2.38901
2.973	2.48952
2.9628	2.34423
2.9526	2.19904
2.9426	2.19558
2.9326	2.32709
2.9227	2.33282
2.9128	2.21011
2.903	2.34983
2.8933	2.24591
2.8837	2.42402
2.8741	2.28755
2.8646	2.39637
2.8551	2.46274
2.8457	2.45632
2.8363	2.64685
2.8271	2.59123
2.8178	2.45619
2.8087	2.47622
2.7996	2.5553
2.7906	2.16637
2.7816	2.11158
2.7726	2.04415
2.7638	1.63733
2.755	1.65682
2.7462	1.81747
2.7375	2.06546
2.7289	2.70488
2.7203	3.62882
2.7117	3.80347
2.7033	2.70723
2.6948	7.75547
2.6864	14.8087
2.6781	20.5685
2.6698	25.2758
2.6616	26.0747
2.6535	27.9933
2.6453	29.1438
2.6373	29.8934
2.6292	31.8028
2.6213	32.6416
2.6133	32.3912
2.6054	34.209
2.5976	33.2236
2.5898	33.5193
2.5821	34.0863
2.5744	34.522
2.5668	34.0876
2.5592	34.5418
2.5516	34.7584
2.5441	34.69
2.5366	34.8883
2.5292	35.0031
2.5218	34.9624
2.5145	35.4764
2.5072	35.6508
2.4999	35.9172
2.4927	36.206
2.4855	36.5387
2.4784	37.2172
2.4713	37.369
2.4643	37.9169
2.4573	38.419
2.4503	38.5077
2.4434	39.1431
2.4365	39.6618
2.4296	40.4063
2.4228	41.1029
2.4161	41.7395
2.4093	42.147
2.4026	42.7068
2.396	42.7091
2.3893	42.7889
2.3827	43.0349
2.3762	43.5142
2.3697	43.981
2.3632	44.5703
2.3567	44.6963
2.3503	45.1837
2.344	45.7635
2.3376	46.1336
2.3313	46.8304
2.325	47.3778
2.3188	48.1064
2.3126	48.4622
2.3064	48.988
2.3003	49.1472
2.2942	49.7207
2.2881	49.7227
2.2821	50.1952
2.2761	50.2661
2.2701	50.3766
2.2641	50.3885
2.2582	50.0701
2.2523	49.5235
2.2465	49.255
2.2406	49.1269
2.2348	49.1072
2.2291	48.905
2.2233	48.5209
2.2176	47.6172
2.212	45.622
2.2063	45.4967
2.2007	47.6055
2.1951	48.3122
2.1895	49.5257
2.184	50.1345
2.1785	50.6989
2.173	51.1792
2.1676	51.5549
2.1622	51.87
2.1568	52.3475
2.1514	52.8385
2.146	53.6426
2.1407	54.0411
2.1354	54.244
2.1302	54.3013
2.1249	54.3413
2.1197	54.3523
2.1145	54.4797
2.1094	54.3105
2.1042	54.3106
2.0991	54.123
2.094	54.3704
2.089	54.2759
2.0839	54.1114
2.0789	54.2494
2.0739	54.2454
2.069	54.0663
2.064	53.9964
2.0591	53.8473
2.0542	53.5471
2.0493	53.5037
2.0445	53.3877
2.0397	53.221
2.0349	53.0669
2.0301	52.8411
2.0253	52.4754
2.0206	51.9946
2.0159	51.9302
2.0112	51.2898
2.0065	51.0554
2.0019	50.5487
