Name: Cristobalite SiO_2
Type: Mineral
Class: Silicates
Subclass: Tectosilicates
Particle Size: 0-45um
Sample No.: TS-7A
Owner: JPL
Origin: USA, California, Inyo County, Little Lake
Measurement: Hemispherical reflectance
X Units: Wavelength (micrometers)
Y Units: Reflectance (percent)
wavelength	value
15.3853	1.17709
15.1161	1.2871
14.8563	2.04092
14.6052	2.2934
14.3624	2.35522
14.1276	2.26147
13.9004	1.84372
13.6803	1.86283
13.4671	1.9321
13.2604	2.11463
13.06	2.00271
12.8656	2.2066
12.6769	1.65766
12.4936	1.44631
12.3155	2.24978
12.1425	4.5601
11.9742	6.81308
11.8106	8.06269
11.6513	9.05533
11.4963	9.34954
11.3454	9.58183
11.1983	9.29952
11.0551	8.81473
10.9154	8.0312
10.7793	6.60055
10.6465	5.49283
10.5169	4.34995
10.3904	3.97564
10.267	3.53581
10.1464	3.6154
10.0287	3.7143
9.91364	3.69311
9.80119	3.65697
9.69128	3.60109
9.5838	3.64726
9.47867	3.61045
9.37583	3.59293
9.27519	3.91399
9.17669	4.59268
9.08027	4.56051
8.98585	4.56742
8.89337	4.56001
8.80277	4.28889
8.714	4.3
8.62701	4.3037
8.54174	4.61492
8.45813	4.35357
8.37614	3.85895
8.29573	4.14393
8.21685	4.51253
8.13946	3.96652
8.0635	3.36496
7.98896	2.98519
7.91578	2.78198
7.84392	2.28871
7.77337	1.88403
7.70406	1.66882
7.63598	1.46728
7.5691	1.40083
7.50338	1.5732
7.43879	1.61719
7.37529	1.78531
7.31288	2.07776
7.25152	2.27873
7.19117	2.77896
7.13182	2.94669
7.07344	3.3392
7.01601	3.7225
6.95951	4.09815
6.90391	4.47012
6.84918	4.90722
6.79532	5.44878
6.74231	5.81597
6.69011	6.20796
6.63871	6.9204
6.5881	7.16788
6.53825	7.55776
6.48915	8.34154
6.44079	8.39363
6.39314	8.43309
6.34618	8.38885
6.29992	7.83851
6.25432	7.32562
6.20938	6.81902
6.16508	6.64328
6.12141	7.14033
6.07835	7.80285
6.0359	8.58186
5.99403	9.52945
5.95274	10.3571
5.91201	11.0808
5.87184	11.5022
5.83221	11.5407
5.79311	11.3153
5.75453	11.3351
5.71646	11.2636
5.6789	11.1399
5.64182	11.3692
5.60522	11.4647
5.5691	11.9179
5.53344	12.503
5.49823	13.1949
5.46347	13.7993
5.42914	13.8994
5.39525	13.2759
5.36177	11.7306
5.32871	11.383
5.29605	12.1774
5.26379	13.8134
5.23192	16.2543
5.20044	18.3552
5.16933	19.5291
5.13859	20.2594
5.10821	20.4008
5.07819	20.2635
5.04852	19.9617
5.0192	19.8669
4.99021	20.0862
4.96156	20.7122
4.93324	22.5752
4.90524	25.5313
4.87755	28.0423
4.85017	29.8243
4.8231	31.139
4.79633	31.8735
4.76986	32.6566
4.74367	33.0279
4.71777	33.457
4.69216	33.8356
4.66682	34.2484
4.64175	34.4662
4.61695	35.2074
4.59241	35.9692
4.56814	36.5381
4.54411	37.1445
4.52034	37.7774
4.49682	38.2426
4.47354	38.6756
4.4505	38.9518
4.4277	39.0036
4.40513	39.0927
4.38278	39.7183
4.36067	40.604
4.33877	41.5086
4.3171	42.4042
4.29564	42.9847
4.27439	43.5883
4.25335	44.209
4.23252	44.2225
4.21189	44.6503
4.19146	44.9781
4.17123	45.3195
4.15119	45.5413
4.13134	45.827
4.11168	46.1447
4.09221	46.4326
4.07292	46.6187
4.05382	46.7514
4.03489	47.0751
4.01614	47.1659
3.99756	47.1856
3.97915	47.3483
3.96091	47.3627
3.94284	47.4225
3.92493	47.4921
3.90718	47.7037
3.8896	47.6093
3.87217	47.8158
3.8549	47.7235
3.83777	47.8374
3.82081	47.8643
3.80399	47.9878
3.78731	47.9549
3.77079	47.9109
3.7544	47.88
3.73816	47.8206
3.72206	47.8527
3.7061	47.8922
3.69027	47.9731
3.67458	47.9433
3.65902	47.9732
3.64359	47.807
3.6283	47.8506
3.61312	47.7565
3.59808	47.6829
3.58316	47.3525
3.56836	47.3384
3.55369	47.19
3.53914	46.993
3.5247	46.8289
3.51038	46.191
3.49618	45.7292
3.48209	45.6454
3.46812	45.6224
3.45425	45.3368
3.4405	44.8629
3.42686	44.2635
3.41332	43.4378
3.39989	43.4608
3.38657	43.5503
3.37335	42.9896
3.36023	43.0029
3.34721	42.7854
3.3343	42.5942
3.32148	42.2844
3.30876	41.8499
3.29614	41.5481
3.28362	40.9062
3.27119	40.5376
3.25885	40.0728
3.24661	39.5295
3.23446	39.0488
3.22239	38.5395
3.21042	38.0357
3.19854	37.5763
3.18674	36.9083
3.17504	36.3118
3.16341	35.8671
3.15187	35.2107
3.14042	34.6341
3.12905	33.9793
3.11776	33.4234
3.10655	33.0532
3.09542	32.4821
3.08437	32.074
3.0734	31.8443
3.06251	31.7402
3.0517	31.281
3.04096	30.8964
3.03029	30.8143
3.0197	30.4639
3.00919	30.0265
2.99875	29.8326
2.98838	29.3592
2.97808	29.1149
2.96785	28.9224
2.95769	28.486
2.9476	28.0899
2.93758	27.7851
2.92763	27.6627
2.91775	27.8175
2.90793	28.0826
2.89817	27.9951
2.88849	27.8166
2.87886	27.8159
2.8693	28.1066
2.85981	28.7682
2.85038	29.0625
2.841	29.351
2.83169	29.7633
2.82245	29.8924
2.81326	30.5289
2.80413	31.2026
2.79506	31.6039
2.78605	32.3528
2.77709	33.2653
2.7682	34.3676
2.75936	35.0025
2.75057	35.9234
2.74185	37.4185
2.73318	38.5661
2.72456	40.9089
2.71599	42.8447
2.70748	46.576
2.69903	48.5343
2.69062	50.0217
2.68227	50.719
2.67397	51.4318
2.66572	53.3432
2.65753	52.1847
2.64938	52.3981
2.64128	52.6878
2.63323	52.9886
2.62523	53.0043
2.61728	53.6853
2.60938	53.3125
2.60152	53.3196
2.59371	54.2537
2.58595	53.4896
2.57824	53.4222
2.57057	53.3935
2.56294	53.8451
2.55536	53.1991
2.54783	53.3681
2.54034	53.2533
2.53289	53.3404
2.52549	53.3344
2.51813	53.4065
2.51082	53.4601
2.50354	53.2986
2.49631	53.3785
2.48912	53.7102
2.48197	53.5658
2.47486	53.7079
2.46779	53.8008
2.46077	53.6777
2.45378	53.6062
2.44683	53.9132
2.43992	53.8448
2.43305	53.9266
2.42622	53.9073
2.41943	53.9608
2.41267	54.1686
2.40595	54.0864
2.39928	54.0955
2.39263	54.0887
2.38603	54.2036
2.37946	54.2708
2.37292	54.2533
2.36642	54.4138
2.35996	54.526
2.35353	54.3589
2.34714	54.3337
2.34078	54.42
2.33446	54.3367
2.32817	54.581
2.32191	54.3675
2.31569	54.3286
2.3095	54.3661
2.30335	54.4055
2.29722	54.2631
2.29113	54.5667
2.28507	54.3651
2.27905	54.4428
2.27305	54.54
2.26709	54.4948
2.26116	54.3578
2.25526	54.4085
2.24939	54.5188
2.24355	54.3703
2.23774	54.3599
2.23196	54.3473
2.22621	54.425
2.22049	54.3659
2.21479	54.3921
2.20913	54.3805
2.2035	54.4632
2.19789	54.5429
2.19232	54.495
2.18677	54.5444
2.18125	54.7174
2.17576	54.4519
2.17029	54.7257
2.16486	54.716
2.15945	54.428
2.15406	54.6909
2.14871	54.6258
2.14338	54.7603
2.13808	54.8082
2.1328	54.8183
2.12755	54.4304
2.12232	54.5333
2.11712	54.8491
2.11195	54.7808
2.1068	54.6874
2.10168	54.6115
2.09658	54.5445
2.0915	54.885
2.08645	55.1732
2.08143	54.9306
2.07643	54.6547
2.07145	54.8959
2.06649	55.0941
2.06156	54.5754
2.05666	54.7351
2.05177	54.9833
2.04691	54.9297
2.04208	54.7929
2.03726	54.9179
2.03247	54.8949
2.0277	54.9976
2.02295	54.6394
2.01823	55.2128
2.01353	54.8943
2.00885	54.7097
2.00419	55.0373
