Name: Corundum Al_2O_3
Type: Mineral
Class: Oxides
Particle Size: 45-125um
Sample No.: O-15A
Owner: JPL
Description: Synthetic corundum.
Measurement: Hemispherical reflectance
X Units: Wavelength (micrometers)
Y Units: Reflectance (percent)
wavelength	value
15.385	10.3496
15.116	9.7737
14.856	9.4314
14.605	9.1865
14.362	8.5418
14.128	8.2829
13.9	7.9106
13.68	7.7714
13.467	8.0277
13.26	7.8289
13.06	8.0453
12.866	8.0804
12.677	8.4039
12.494	8.5337
12.316	8.2777
12.143	8.2898
11.974	8.156
11.811	7.9846
11.651	7.9655
11.496	7.9133
11.345	7.6052
11.198	6.4605
11.055	4.9355
10.915	3.4313
10.779	2.1597
10.647	1.2954
10.517	0.7798
10.39	0.5423
10.267	0.165
10.146	0.1915
10.029	0.0347
9.914	0.0157
9.801	0.1765
9.691	0.1083
9.584	0.0373
9.479	0.0701
9.376	0
9.275	0.1906
9.177	0.2098
9.08	0.2059
8.986	0.2827
8.893	0.2615
8.803	0.3469
8.714	0.4435
8.627	0.5562
8.542	0.6356
8.458	1.046
8.376	1.0882
8.296	1.337
8.217	1.8563
8.139	1.9803
8.063	2.3524
7.989	2.4606
7.916	2.8514
7.844	2.8017
7.773	3.1347
7.704	3.4243
7.636	3.8459
7.569	4.1041
7.503	4.3781
7.439	4.7609
7.375	5.1875
7.313	5.0745
7.252	4.3639
7.191	2.4203
7.132	2.5993
7.073	3.9998
7.016	5.2894
6.96	7.0581
6.904	9.1667
6.849	11.1698
6.795	12.1127
6.742	12.2432
6.69	12.3987
6.639	12.7212
6.588	12.792
6.538	12.0928
6.489	10.5876
6.441	8.7312
6.393	7.0934
6.346	5.8651
6.3	5.5042
6.254	6.36
6.209	8.9917
6.165	12.3419
6.121	15.5692
6.078	18.3973
6.036	20.5632
5.994	22.6872
5.953	24.8644
5.912	27.1522
5.872	29.0798
5.832	30.7528
5.793	32.2713
5.755	33.5071
5.716	34.805
5.679	35.4606
5.642	35.9247
5.605	36.4246
5.569	36.8538
5.533	36.767
5.498	35.9711
5.463	36.6969
5.429	37.8072
5.395	38.5843
5.362	39.1692
5.329	39.3946
5.296	39.5411
5.264	39.7914
5.232	40.0047
5.2	40.1256
5.169	40.1148
5.139	40.1087
5.108	39.7824
5.078	39.3256
5.049	39.2317
5.019	39.2965
4.99	39.2548
4.962	39.3447
4.933	39.2862
4.905	38.9562
4.878	38.8025
4.85	38.5391
4.823	38.3742
4.796	38.0592
4.77	37.6523
4.744	37.8747
4.718	38.0231
4.692	38.1672
4.667	38.3479
4.642	38.7977
4.617	39.3871
4.592	40.1321
4.568	40.7695
4.544	41.4622
4.52	41.8698
4.497	42.359
4.474	42.5195
4.45	42.832
4.428	42.9421
4.405	43.0099
4.383	42.9959
4.361	42.9865
4.339	42.7251
4.317	42.5993
4.296	42.3706
4.274	42.3235
4.253	42.2246
4.233	42.1227
4.212	42.0019
4.191	41.8321
4.171	41.5679
4.151	41.109
4.131	40.7004
4.112	40.1324
4.092	39.3827
4.073	38.6382
4.054	37.8912
4.035	37.4722
4.016	37.1228
3.998	36.6276
3.979	36.1535
3.961	35.6865
3.943	35.6766
3.925	35.9599
3.907	36.7198
3.89	37.5098
3.872	38.2239
3.855	38.6626
3.838	39.1361
3.821	39.2775
3.804	39.3181
3.787	39.0247
3.771	38.7352
3.754	38.2376
3.738	37.8025
3.722	37.4402
3.706	36.9744
3.69	36.6935
3.675	36.2905
3.659	35.8153
3.644	35.3796
3.628	34.8885
3.613	34.4575
3.598	33.9452
3.583	33.2531
3.568	32.4459
3.554	31.7115
3.539	31.1564
3.525	30.3649
3.51	29.177
3.496	28.7925
3.482	28.4455
3.468	27.8458
3.454	27.3135
3.441	26.8423
3.427	26.3097
3.413	25.5746
3.4	24.9194
3.387	24.713
3.373	24.2256
3.36	23.8792
3.347	23.5943
3.334	23.0706
3.321	22.8888
3.309	22.4129
3.296	21.9426
3.284	21.3194
3.271	20.9823
3.259	20.4771
3.247	19.9499
3.234	19.5466
3.222	19.1579
3.21	18.5994
3.199	18.1618
3.187	17.5957
3.175	17.1098
3.163	16.5705
3.152	16.1127
3.14	15.509
3.129	14.9042
3.118	14.4757
3.107	13.6603
3.095	12.9466
3.084	12.3595
3.073	11.3534
3.063	10.4396
3.052	9.4509
3.041	8.9458
3.03	8.8164
3.02	9.1565
3.009	9.8454
2.999	10.1917
2.988	10.2962
2.978	10.6479
2.968	10.9948
2.958	11.1273
2.948	11.5584
2.938	11.7473
2.928	11.7247
2.918	11.7102
2.908	12.1611
2.898	12.2851
2.888	12.0037
2.879	11.5676
2.869	12.1116
2.86	12.5731
2.85	13.4549
2.841	13.9183
2.832	14.4614
2.822	15.2284
2.813	15.7871
2.804	17.3839
2.795	20.0799
2.786	22.0615
2.777	23.5137
2.768	25.033
2.759	25.9683
2.751	29.2503
2.742	31.2283
2.733	31.9739
2.725	36.6708
2.716	38.4851
2.707	39.6079
2.699	43.7062
2.691	51.1328
2.682	56.0306
2.674	59.9848
2.666	63.2856
2.658	66.3267
2.649	68.2396
2.641	69.509
2.633	70.4222
2.625	70.9852
2.617	71.4485
2.609	71.9881
2.602	72.4629
2.594	72.8452
2.586	73.0401
2.578	73.4713
2.571	73.7063
2.563	73.8827
2.555	74.073
2.548	74.2856
2.54	74.6246
2.533	74.7822
2.525	74.9982
2.518	75.1678
2.511	75.5131
2.504	75.7433
2.496	76.0416
2.489	76.1912
2.482	76.3978
2.475	76.7428
2.468	76.9053
2.461	77.1831
2.454	77.2601
2.447	77.5565
2.44	77.825
2.433	77.7789
2.426	78.1267
2.419	78.1126
2.413	78.4047
2.406	78.5998
2.399	78.8807
2.393	78.6989
2.386	79.1626
2.379	79.0394
2.373	79.0263
2.366	78.9524
2.36	78.8312
2.354	78.645
2.347	79.2738
2.341	79.7435
2.334	79.9471
2.328	79.8879
2.322	80.13
2.316	80.4223
2.309	80.5566
2.303	80.6932
2.297	80.7206
2.291	81.0952
2.285	81.103
2.279	81.0066
2.273	81.1345
2.267	81.0108
2.261	80.9874
2.255	81.1613
2.249	81.0945
2.244	81.2777
2.238	81.7072
2.232	81.9926
2.226	82.2683
2.22	82.3622
2.215	82.5277
2.209	82.8421
2.204	83.0339
2.198	83.2898
2.192	83.2953
2.187	83.6352
2.181	83.8453
2.176	83.7395
2.17	84.0007
2.165	84.1902
2.159	84.3217
2.154	84.2904
2.149	84.5455
2.143	84.3693
2.138	84.7263
2.133	84.6456
2.128	84.7794
2.122	84.6121
2.117	84.801
2.112	85.1165
2.107	85.153
2.102	84.9576
2.097	84.8744
2.091	84.9848
2.086	85.1207
2.081	84.7215
2.076	84.5859
2.071	84.7345
2.066	84.5637
2.062	84.9436
2.057	84.9682
2.052	84.5178
2.047	84.588
2.042	84.3156
2.037	84.6207
2.032	84.69
2.028	84.5357
2.023	84.4781
2.018	84.3689
2.014	84.8053
2.009	84.2573
2.004	84.4043
