Name: Chlorite
Type: Mineral
Class: Silicates
Subclass: Phyllosilicates
Particle Size: 45-125um
Sample No.: PS-12C
Owner: JPL
Origin: USA, California.
Measurement: Hemispherical reflectance
X Units: Wavelength (micrometers)
Y Units: Reflectance (percent)
wavelength	value
2.5	34.1753
2.494	34.1412
2.488	34.1765
2.482	34.3166
2.476	34.3784
2.47	34.4111
2.464	34.9748
2.458	35.6322
2.452	36.5206
2.446	37.5882
2.44	38.3946
2.434	39.0189
2.428	39.7442
2.422	40.4981
2.416	40.9526
2.41	40.8387
2.404	40.2034
2.398	39.2155
2.392	38.5188
2.386	38.0183
2.38	37.9374
2.374	37.5627
2.368	36.8557
2.362	35.6271
2.356	34.2253
2.35	32.8176
2.344	31.5351
2.338	30.554
2.332	30.0647
2.326	29.9333
2.32	30.5052
2.314	31.3674
2.308	32.5311
2.302	33.37
2.296	34.1428
2.29	35.2556
2.284	37.1682
2.278	38.9756
2.272	40.0191
2.266	40.2568
2.26	40.1193
2.254	39.7197
2.248	39.6738
2.242	40.9649
2.236	44.0061
2.23	47.6669
2.224	50.9702
2.218	53.3463
2.212	55.2167
2.206	56.6738
2.2	57.8045
2.194	58.6988
2.188	59.6443
2.182	60.4839
2.176	61.2151
2.17	61.8437
2.164	62.3999
2.158	62.747
2.152	63.1191
2.146	63.3481
2.14	63.438
2.134	63.3872
2.128	63.1527
2.122	62.9083
2.116	62.5298
2.11	62.3059
2.104	62.3608
2.098	62.7698
2.092	63.3574
2.086	63.6894
2.08	63.5797
2.074	63.3779
2.068	63.1524
2.062	62.7881
2.056	62.3014
2.05	61.7496
2.044	61.0347
2.038	60.1382
2.032	59.153
2.026	58.0669
2.02	56.9726
2.014	55.9322
2.008	55.2733
2.002	54.8301
1.996	54.5767
1.99	54.4477
1.984	54.5813
1.978	54.9583
1.972	55.4481
1.966	55.8034
1.96	56.1898
1.954	56.3729
1.948	56.9524
1.942	57.4732
1.936	58.0743
1.93	58.3763
1.924	58.6438
1.918	58.7337
1.912	58.8675
1.906	59.0309
1.9	59.1252
1.894	59.0595
1.888	58.737
1.882	58.5455
1.876	58.6216
1.87	58.972
1.864	59.3953
1.858	59.7583
1.852	60.132
1.846	60.5407
1.84	60.8995
1.834	61.1275
1.828	61.1873
1.822	61.2732
1.816	61.3821
1.81	61.3931
1.804	61.3391
1.798	61.3549
1.792	61.2426
1.786	61.1404
1.78	60.9825
1.774	60.8573
1.768	60.6525
1.762	60.4777
1.756	60.3811
1.75	60.1726
1.744	59.9235
1.738	59.7063
1.732	59.4888
1.726	59.2692
1.72	58.9468
1.714	58.8029
1.708	58.4426
1.702	58.0648
1.696	57.7887
1.69	57.4907
1.684	57.201
1.678	56.8261
1.672	56.504
1.666	56.1241
1.66	55.8542
1.654	55.3656
1.648	55.0534
1.642	54.6914
1.636	54.3451
1.63	53.8644
1.624	53.3241
1.618	52.9655
1.612	52.5581
1.606	52.0805
1.6	51.6902
1.594	51.259
1.588	50.6922
1.582	50.2199
1.576	49.6818
1.57	49.2866
1.564	48.8464
1.558	48.4926
1.552	48.1072
1.546	47.7615
1.54	47.4042
1.534	47.1225
1.528	46.8239
1.522	46.5685
1.516	46.3737
1.51	46.1761
1.504	45.9674
1.498	45.8549
1.492	45.5697
1.486	45.3031
1.48	44.8815
1.474	44.4433
1.468	43.8671
1.462	43.2084
1.456	42.4992
1.45	41.8928
1.444	41.3625
1.438	41.1218
1.432	41.1349
1.426	41.223
1.42	41.0785
1.414	40.1356
1.408	39.6742
1.402	39.0866
1.396	36.135
1.39	33.8244
1.384	39.5994
1.378	40.8113
1.372	40.4844
1.366	40.2459
1.36	39.7291
1.354	39.4379
1.348	39.0026
1.342	38.5634
1.336	38.1679
1.33	37.7029
1.324	37.2673
1.318	36.8274
1.312	36.5001
1.306	35.9763
1.3	35.6056
1.294	35.2694
1.288	34.8544
1.282	34.4573
1.276	34.0377
1.27	33.6008
1.264	33.2605
1.258	32.8166
1.252	32.3972
1.246	32.0238
1.24	31.5467
1.234	31.1877
1.228	30.7848
1.222	30.3708
1.216	30.0385
1.21	29.644
1.204	29.3064
1.198	28.9386
1.192	28.6149
1.186	28.3048
1.18	27.9525
1.174	27.6713
1.168	27.3537
1.162	27.1452
1.156	26.8791
1.15	26.6204
1.144	26.4406
1.138	26.2742
1.132	26.0526
1.126	25.8989
1.12	25.756
1.114	25.5798
1.108	25.5163
1.102	25.4099
1.096	25.3072
1.09	25.2021
1.084	25.1406
1.078	25.1488
1.072	25.0196
1.066	24.9983
1.06	25.0421
1.054	24.8787
1.048	24.975
1.042	24.9268
1.036	24.873
1.03	24.8866
1.024	24.8177
1.018	24.7974
1.012	24.7593
1.006	24.6684
1	24.5617
0.994	24.4171
0.988	24.2909
0.982	24.1805
0.976	23.9793
0.97	23.8158
0.964	23.5246
0.958	23.3256
0.952	23.0642
0.946	22.7995
0.94	22.6138
0.934	22.3878
0.928	22.1843
0.922	21.8729
0.916	21.7459
0.91	21.6676
0.904	21.5711
0.898	21.4381
0.892	21.4838
0.886	21.4395
0.88	21.4339
0.874	21.5092
0.868	21.5936
0.862	21.7348
0.856	21.9846
0.85	22.1858
0.844	22.3861
0.838	22.5804
0.832	22.7563
0.826	22.9082
0.82	23.0702
0.814	23.1675
0.808	23.2145
0.802	23.2011
0.796	23.1015
0.79	22.9531
0.784	22.7275
0.778	22.4557
0.772	22.1511
0.766	21.834
0.76	21.5112
0.754	21.2082
0.748	20.9353
0.742	20.6712
0.736	20.4733
0.73	20.301
0.724	20.1686
0.718	20.1031
0.712	20.0756
0.706	20.0869
0.7	20.1576
0.694	20.2831
0.688	20.4387
0.682	20.6477
0.676	20.8985
0.67	21.1677
0.664	21.4601
0.658	21.7883
0.652	22.1359
0.646	22.4999
0.64	22.8781
0.634	23.2731
0.628	23.6607
0.622	24.0679
0.616	24.452
0.61	24.8262
0.604	25.2039
0.598	25.5692
0.592	25.9222
0.586	26.2492
0.58	26.5226
0.574	26.7748
0.568	26.9918
0.562	27.1472
0.556	27.2363
0.55	27.2791
0.544	27.2926
0.538	27.2892
0.532	27.3347
0.526	27.457
0.52	27.5614
0.514	27.5461
0.508	27.3802
0.502	26.9792
0.496	26.3345
0.49	26.2987
0.484	25.9135
0.478	25.2224
0.472	24.3627
0.466	23.5181
0.46	22.7938
0.454	22.2109
0.448	22.007
0.442	21.8901
0.436	21.2745
0.43	20.7939
0.424	20.2146
0.418	19.3904
0.412	18.7518
0.406	18.2945
0.4	18.1134
