Name: Saponite (Ca/2,Na)_0.33(Mg,Fe^2+)_3(Si,Al)_4O_10(OH)_2.4H_2O
Type: Mineral
Class: Silicates
Subclass: Phyllosilicates
Particle Size: 0-45um
Sample No.: PS-24A
Owner: JPL
Origin: USA, California, Ballarat.
Measurement: Hemispherical reflectance
X Units: Wavelength (micrometers)
Y Units: Reflectance (percent)
wavelength	value
2.5	43.6337
2.494	43.8325
2.488	44.2821
2.482	44.906
2.476	45.2021
2.47	45.5373
2.464	45.8169
2.458	46.564
2.452	47.4296
2.446	48.2721
2.44	49.0289
2.434	49.811
2.428	50.5083
2.422	51.2495
2.416	52.1107
2.41	52.85
2.404	52.7919
2.398	52.1057
2.392	51.4441
2.386	51.4296
2.38	52.5107
2.374	54.4348
2.368	56.514
2.362	58.1748
2.356	59.174
2.35	59.8896
2.344	60.1857
2.338	59.6068
2.332	57.8488
2.326	54.8247
2.32	51.3705
2.314	49.3854
2.308	50.0539
2.302	52.3085
2.296	54.292
2.29	56.0313
2.284	58.7883
2.278	62.2344
2.272	65.1931
2.266	67.2271
2.26	68.5947
2.254	69.3452
2.248	69.7901
2.242	70.0752
2.236	70.3419
2.23	70.668
2.224	71.0159
2.218	71.3374
2.212	71.5079
2.206	71.766
2.2	71.8726
2.194	71.9531
2.188	71.9936
2.182	72.04
2.176	72.0527
2.17	72.1477
2.164	72.2774
2.158	72.3991
2.152	72.4381
2.146	72.3578
2.14	72.2113
2.134	71.7927
2.128	71.4876
2.122	71.1632
2.116	70.7252
2.11	70.4538
2.104	70.1609
2.098	69.8829
2.092	69.7488
2.086	69.7155
2.08	69.7521
2.074	69.7309
2.068	69.518
2.062	69.2791
2.056	68.9114
2.05	68.606
2.044	68.1766
2.038	67.5718
2.032	66.9053
2.026	66.0171
2.02	65.1254
2.014	64.0917
2.008	63.0511
2.002	61.9569
1.996	60.6682
1.99	59.3924
1.984	58.121
1.978	56.8575
1.972	55.7585
1.966	54.7637
1.96	53.8432
1.954	53.093
1.948	52.4453
1.942	51.6884
1.936	50.6661
1.93	49.2282
1.924	47.1321
1.918	44.5807
1.912	42.018
1.906	40.8107
1.9	42.9363
1.894	48.6507
1.888	56.281
1.882	63.2377
1.876	68.2005
1.87	72.2316
1.864	74.796
1.858	76.4014
1.852	77.5289
1.846	78.301
1.84	78.8654
1.834	79.2211
1.828	79.6244
1.822	79.7863
1.816	79.9869
1.81	80.1181
1.804	80.3211
1.798	80.56
1.792	80.8198
1.786	81.0808
1.78	81.3538
1.774	81.6743
1.768	82.0076
1.762	82.4223
1.756	82.8228
1.75	83.1958
1.744	83.7637
1.738	84.1966
1.732	84.6116
1.726	85.0004
1.72	85.2358
1.714	85.5853
1.708	85.7409
1.702	85.872
1.696	86.0315
1.69	86.1362
1.684	86.2646
1.678	86.3252
1.672	86.3399
1.666	86.3927
1.66	86.2553
1.654	86.3493
1.648	86.3109
1.642	86.1328
1.636	86.0179
1.63	85.9383
1.624	85.9484
1.618	85.7741
1.612	85.6033
1.606	85.4478
1.6	85.2281
1.594	85.1295
1.588	84.8779
1.582	84.7162
1.576	84.5179
1.57	84.2566
1.564	83.9945
1.558	83.6834
1.552	83.2884
1.546	82.8892
1.54	82.5185
1.534	82.0773
1.528	81.6508
1.522	81.1399
1.516	80.6136
1.51	80.0127
1.504	79.3506
1.498	78.7171
1.492	77.9485
1.486	77.0442
1.48	76.0787
1.474	74.9049
1.468	73.6776
1.462	73.1141
1.456	73.0795
1.45	72.942
1.444	72.4491
1.438	71.4933
1.432	70.2408
1.426	68.8285
1.42	67.4898
1.414	66.8162
1.408	67.5851
1.402	69.8376
1.396	69.0171
1.39	61.6365
1.384	75.7845
1.378	81.9597
1.372	83.3808
1.366	84.4484
1.36	85.1619
1.354	85.7096
1.348	86.0451
1.342	86.5764
1.336	86.9857
1.33	87.5477
1.324	87.9831
1.318	88.4755
1.312	88.9787
1.306	89.165
1.3	89.0743
1.294	89.2962
1.288	89.5546
1.282	89.4043
1.276	89.1113
1.27	89.4534
1.264	89.5465
1.258	89.5184
1.252	89.4815
1.246	89.3392
1.24	89.3158
1.234	89.0994
1.228	88.9741
1.222	88.872
1.216	88.6571
1.21	88.5641
1.204	88.3768
1.198	88.2628
1.192	88.1555
1.186	87.9526
1.18	87.88
1.174	87.601
1.168	87.4019
1.162	86.8877
1.156	86.4878
1.15	86.7815
1.144	87.5546
1.138	88.1176
1.132	88.438
1.126	88.5318
1.12	88.4415
1.114	88.5052
1.108	88.4313
1.102	88.3973
1.096	88.3774
1.09	88.3883
1.084	88.2092
1.078	88.2703
1.072	88.0838
1.066	88.0189
1.06	88.104
1.054	87.9637
1.048	87.9186
1.042	87.9234
1.036	87.8231
1.03	87.7287
1.024	87.6976
1.018	87.6953
1.012	87.6511
1.006	87.6098
1	87.4943
0.994	87.3702
0.988	87.232
0.982	87.1594
0.976	87.0166
0.97	86.9148
0.964	86.8578
0.958	86.9308
0.952	86.4802
0.946	86.5657
0.94	87.5706
0.934	87.7143
0.928	87.8114
0.922	87.8491
0.916	87.9839
0.91	88.0314
0.904	88.1654
0.898	88.1122
0.892	88.2021
0.886	88.3674
0.88	88.4268
0.874	88.4275
0.868	88.645
0.862	88.6614
0.856	88.8079
0.85	88.914
0.844	89.0648
0.838	89.1405
0.832	89.2158
0.826	89.4085
0.82	89.5119
0.814	89.6404
0.808	89.7156
0.802	89.8184
0.796	89.828
0.79	89.8646
0.784	89.8813
0.778	89.9378
0.772	89.9713
0.766	89.9112
0.76	89.9419
0.754	89.9058
0.748	89.8709
0.742	89.8152
0.736	89.7591
0.73	89.6569
0.724	89.6071
0.718	89.5207
0.712	89.3984
0.706	89.2861
0.7	89.1194
0.694	88.901
0.688	88.7226
0.682	88.5551
0.676	88.3111
0.67	88.1058
0.664	87.8717
0.658	87.6874
0.652	87.5125
0.646	87.3583
0.64	87.2164
0.634	87.0596
0.628	86.9551
0.622	86.8537
0.616	86.7121
0.61	86.6231
0.604	86.5063
0.598	86.3984
0.592	86.3405
0.586	86.1719
0.58	86.0209
0.574	85.8447
0.568	85.6581
0.562	85.4304
0.556	85.1623
0.55	84.8954
0.544	84.5934
0.538	84.2473
0.532	83.7831
0.526	83.2277
0.52	82.6257
0.514	81.961
0.508	81.1726
0.502	80.3152
0.496	79.4261
0.49	78.4713
0.484	77.3899
0.478	76.2833
0.472	74.7867
0.466	72.9259
0.46	71.1405
0.454	70.0695
0.448	69.1973
0.442	68.3116
0.436	67.2936
0.43	65.9905
0.424	64.7774
0.418	63.5458
0.412	62.1621
0.406	60.6354
0.4	58.8484
