Name: Triphylite Li(Mn,Fe)PO_4
Type: Mineral
Class: Phosphates
Particle Size: 45-125um
Sample No.: P-4A
Owner: JPL
Origin: USA, New Hampshire, North Graton, Palermo Mine.
Measurement: Hemispherical reflectance
X Units: Wavelength (micrometers)
Y Units: Reflectance (percent)
wavelength	value
2.5	71.9922
2.494	72.256
2.488	72.4964
2.482	72.7842
2.476	72.9197
2.47	73.249
2.464	73.5124
2.458	73.7147
2.452	73.9685
2.446	74.2611
2.44	74.5602
2.434	74.6736
2.428	74.8169
2.422	75.1725
2.416	75.2206
2.41	75.4675
2.404	75.6966
2.398	75.7457
2.392	76.0499
2.386	76.2298
2.38	76.4376
2.374	76.6612
2.368	76.7906
2.362	77.0073
2.356	77.2154
2.35	77.3599
2.344	77.5742
2.338	77.6328
2.332	77.6566
2.326	77.7488
2.32	77.7338
2.314	77.811
2.308	77.8056
2.302	77.8392
2.296	77.8871
2.29	77.9293
2.284	77.8138
2.278	77.8552
2.272	77.849
2.266	77.8695
2.26	77.738
2.254	77.7958
2.248	77.7387
2.242	77.7616
2.236	77.6955
2.23	77.6916
2.224	77.7968
2.218	77.7012
2.212	77.7403
2.206	77.7445
2.2	77.7389
2.194	77.6667
2.188	77.6744
2.182	77.6261
2.176	77.6865
2.17	77.5636
2.164	77.5817
2.158	77.5231
2.152	77.4039
2.146	77.2129
2.14	76.9959
2.134	76.6331
2.128	76.2773
2.122	75.7216
2.116	75.2769
2.11	74.7515
2.104	74.1662
2.098	73.8263
2.092	73.5133
2.086	73.2881
2.08	73.0174
2.074	72.6697
2.068	72.442
2.062	72.0497
2.056	71.7012
2.05	71.3115
2.044	70.9343
2.038	70.5044
2.032	70.0762
2.026	69.615
2.02	69.0098
2.014	68.584
2.008	67.9846
2.002	67.4371
1.996	66.8139
1.99	66.204
1.984	65.5427
1.978	64.9075
1.972	64.1573
1.966	63.5697
1.96	62.9604
1.954	62.2352
1.948	61.6046
1.942	60.958
1.936	60.3551
1.93	59.6661
1.924	59.0964
1.918	58.4807
1.912	57.8538
1.906	57.3021
1.9	56.6227
1.894	55.989
1.888	55.4223
1.882	54.776
1.876	54.0946
1.87	53.2547
1.864	52.4299
1.858	51.6834
1.852	50.9183
1.846	50.1033
1.84	49.2427
1.834	48.3698
1.828	47.6405
1.822	46.7377
1.816	45.8349
1.81	45.0123
1.804	44.1935
1.798	43.281
1.792	42.4704
1.786	41.575
1.78	40.7001
1.774	39.9078
1.768	39.0265
1.762	38.1809
1.756	37.3536
1.75	36.5869
1.744	35.7198
1.738	34.9498
1.732	34.1145
1.726	33.3304
1.72	32.5456
1.714	31.787
1.708	30.9787
1.702	30.2939
1.696	29.5752
1.69	28.9173
1.684	28.1868
1.678	27.4773
1.672	26.8219
1.666	26.1967
1.66	25.5647
1.654	24.8868
1.648	24.4075
1.642	23.7672
1.636	23.1218
1.63	22.6144
1.624	22.0012
1.618	21.5176
1.612	21.0251
1.606	20.5339
1.6	20.0426
1.594	19.5096
1.588	19.0767
1.582	18.6668
1.576	18.2089
1.57	17.756
1.564	17.3773
1.558	17.013
1.552	16.627
1.546	16.3414
1.54	15.9426
1.534	15.5907
1.528	15.2968
1.522	15.0055
1.516	14.7728
1.51	14.4125
1.504	14.192
1.498	13.9439
1.492	13.6941
1.486	13.4863
1.48	13.2699
1.474	13.0726
1.468	12.9059
1.462	12.7283
1.456	12.5204
1.45	12.3997
1.444	12.2888
1.438	12.153
1.432	12.0461
1.426	11.9224
1.42	11.8208
1.414	11.721
1.408	11.6634
1.402	11.5721
1.396	11.5644
1.39	11.4398
1.384	11.4555
1.378	11.4055
1.372	11.3917
1.366	11.3475
1.36	11.3539
1.354	11.3785
1.348	11.278
1.342	11.3821
1.336	11.4644
1.33	11.4452
1.324	11.504
1.318	11.5406
1.312	11.5899
1.306	11.6762
1.3	11.7679
1.294	11.8527
1.288	11.863
1.282	11.9168
1.276	12.007
1.27	12.0458
1.264	12.1122
1.258	12.1553
1.252	12.1355
1.246	12.1739
1.24	12.2339
1.234	12.1389
1.228	12.1116
1.222	12.1095
1.216	11.9221
1.21	11.8293
1.204	11.716
1.198	11.5575
1.192	11.3728
1.186	11.205
1.18	10.9695
1.174	10.704
1.168	10.4923
1.162	10.2477
1.156	10.0054
1.15	9.76501
1.144	9.5575
1.138	9.26092
1.132	9.03253
1.126	8.77652
1.12	8.70096
1.114	8.55031
1.108	8.34353
1.102	8.29781
1.096	8.21096
1.09	8.09851
1.084	7.92282
1.078	8.05922
1.072	7.94805
1.066	8.02595
1.06	8.00553
1.054	7.97053
1.048	8.0458
1.042	8.17114
1.036	8.34925
1.03	8.38547
1.024	8.50912
1.018	8.77141
1.012	8.96007
1.006	9.13643
1	9.51779
0.994	9.80286
0.988	10.1515
0.982	10.6162
0.976	11.0084
0.97	11.5488
0.964	12.057
0.958	12.7176
0.952	13.3661
0.946	14.1661
0.94	14.9905
0.934	15.9627
0.928	17.0257
0.922	18.1958
0.916	19.4198
0.91	20.8202
0.904	22.2225
0.898	23.8443
0.892	25.5656
0.886	27.2989
0.88	29.1395
0.874	31.082
0.868	33.0957
0.862	35.1912
0.856	38.3453
0.85	40.6379
0.844	42.8382
0.838	45.0839
0.832	47.3157
0.826	49.4228
0.82	51.4067
0.814	53.2592
0.808	54.9512
0.802	56.3783
0.796	57.5544
0.79	58.4951
0.784	59.1862
0.778	59.5921
0.772	59.6902
0.766	59.5583
0.76	59.2886
0.754	58.7496
0.748	58.1725
0.742	57.5875
0.736	57.0181
0.73	56.6345
0.724	56.3584
0.718	56.1942
0.712	56.2354
0.706	56.4078
0.7	56.7221
0.694	57.1246
0.688	57.6356
0.682	58.2199
0.676	58.8699
0.67	59.5828
0.664	60.317
0.658	61.0187
0.652	61.4755
0.646	61.5613
0.64	60.9284
0.634	59.2902
0.628	56.5988
0.622	53.3156
0.616	50.275
0.61	48.2261
0.604	47.4807
0.598	47.8002
0.592	48.6697
0.586	49.4982
0.58	49.9663
0.574	50.0663
0.568	50.0119
0.562	50.1775
0.556	50.7438
0.55	51.5801
0.544	52.4476
0.538	53.1439
0.532	53.3821
0.526	53.0607
0.52	52.5295
0.514	52.0484
0.508	51.2641
0.502	47.9692
0.496	44.9592
0.49	47.2858
0.484	49.5548
0.478	47.9267
0.472	39.7017
0.466	40.6855
0.46	41.0688
0.454	41.0005
0.448	42.2641
0.442	43.3431
0.436	44.7318
0.43	45.0074
0.424	44.4557
0.418	43.7809
0.412	40.1966
0.406	35.4572
0.4	38.2643
