Name: Travertine (Calcareous Tufa)
Type: Rock
Class: Sedimentary
Subclass: Limestone
Particle Size: Solid surface
Sample No.: Ward73.txt
Owner: JPL
Origin: Ward's Collection of American Rocks.  Sample locality - Mumford, Monroe County, New York.
Description: A buff porous carbonate rock.  Plant impressions a
Measurement: Hemispherical reflectance
X Units: Wavelength (micrometers)
Y Units: Reflectance (percent)
wavelength	value
15.3871	2.74054
15.118	3.0319
14.8581	2.78093
14.6069	3.71985
14.3642	3.62587
14.1293	2.90629
13.9021	1.91156
13.682	3.90008
13.4687	4.87848
13.2621	5.13547
13.0616	5.24668
12.8672	5.36952
12.6784	5.61239
12.4951	5.73013
12.317	6.4845
12.1439	6.79315
11.9757	7.23747
11.812	5.44564
11.6527	7.62238
11.4977	5.3187
11.3468	7.54209
11.1997	11.0048
11.0564	10.3149
10.9168	10.0165
10.7806	9.47743
10.6478	9.16644
10.5182	9.36874
10.3917	9.65039
10.2683	9.47888
10.1477	8.5974
10.0299	8.06981
9.9148	7.59692
9.8024	7.42069
9.6925	7.51832
9.585	7.53335
9.4798	7.7303
9.377	7.18691
9.2763	6.33998
9.1778	5.5968
9.0814	5.88286
8.987	5.84124
8.8945	4.90937
8.8039	3.81762
8.7151	3.45152
8.6281	3.41595
8.5428	3.70877
8.4592	4.30876
8.3772	5.77877
8.2967	7.32904
8.2179	8.61915
8.1404	8.94917
8.0645	9.19483
7.9899	9.7111
7.9167	9.71101
7.8449	9.93559
7.7743	9.90522
7.705	9.67548
7.6369	8.89162
7.57	8.26252
7.5043	8.12752
7.4397	7.86413
7.3762	7.22813
7.3138	6.33071
7.2524	5.82369
7.1921	5.70948
7.1327	6.50211
7.0743	7.90274
7.0169	7.62155
6.9604	7.27598
6.9047	7.27582
6.85	7.33748
6.7962	7.58895
6.7431	7.92177
6.6909	8.3374
6.6395	9.33365
6.5889	9.97225
6.539	10.9409
6.49	11.5731
6.4416	11.0025
6.3939	7.85245
6.347	5.22256
6.3007	3.38613
6.2551	2.83218
6.2101	2.45075
6.1658	2.14295
6.1222	2.21098
6.0791	2.26847
6.0366	2.25697
5.9948	2.4855
5.9535	2.68792
5.9127	3.20832
5.8726	3.64876
5.8329	3.94219
5.7938	4.07353
5.7552	4.2773
5.7172	4.81283
5.6796	5.49767
5.6425	5.78743
5.6059	4.08045
5.5698	1.93676
5.5341	4.83655
5.4989	8.63638
5.4641	11.3796
5.4298	13.5586
5.3959	15.1913
5.3624	16.7902
5.3294	18.0329
5.2967	19.1739
5.2644	19.973
5.2326	20.6818
5.2011	21.3144
5.17	21.6211
5.1392	21.9573
5.1088	20.4758
5.0788	22.2451
5.0491	22.6887
5.0198	22.7951
4.9908	22.7504
4.9622	22.6254
4.9338	22.5048
4.9058	22.5583
4.8781	22.5549
4.8508	22.4071
4.8237	22.3739
4.7969	22.1091
4.7704	21.6542
4.7443	20.7607
4.7184	18.7207
4.6927	16.3912
4.6674	15.8306
4.6423	17.0004
4.6175	18.417
4.593	19.004
4.5687	19.5514
4.5447	20.0212
4.5209	20.2952
4.4974	20.7932
4.4741	21.319
4.451	21.8232
4.4282	22.357
4.4057	22.668
4.3833	22.7506
4.3612	22.4738
4.3393	22.377
4.3176	22.5037
4.2962	22.5905
4.2749	22.0108
4.2539	23.0736
4.233	22.8269
4.2124	23.3615
4.192	23.6618
4.1717	23.269
4.1517	22.883
4.1319	22.1706
4.1122	21.2318
4.0927	19.9843
4.0734	18.4521
4.0543	16.1391
4.0354	12.4466
4.0166	8.9598
3.9981	5.68188
3.9796	4.89333
3.9614	5.36378
3.9433	7.56231
3.9254	8.90785
3.9077	9.68861
3.8901	9.69444
3.8726	10.2929
3.8554	10.5173
3.8382	11.2355
3.8213	13.6505
3.8045	16.475
3.7878	19.7916
3.7713	20.8625
3.7549	21.0382
3.7386	21.0426
3.7225	20.9573
3.7066	20.8802
3.6907	20.662
3.675	20.4982
3.6595	20.12
3.644	19.7985
3.6287	19.4131
3.6136	18.8043
3.5985	18.2537
3.5836	17.4647
3.5688	16.8697
3.5541	15.9327
3.5396	14.5284
3.5251	11.9678
3.5108	9.57457
3.4966	8.45535
3.4825	7.62381
3.4685	8.59998
3.4547	9.74159
3.4409	9.93406
3.4273	9.39935
3.4137	9.15425
3.4003	9.1407
3.387	9.18932
3.3738	9.14507
3.3606	8.78479
3.3476	8.93714
3.3347	11.2496
3.3219	12.1285
3.3092	12.2491
3.2965	12.4863
3.284	12.0095
3.2716	11.836
3.2593	11.9054
3.247	11.5217
3.2348	11.3698
3.2228	10.8563
3.2108	11.0505
3.1989	10.6329
3.1871	10.4667
3.1754	10.0598
3.1638	9.84172
3.1523	9.71139
3.1408	9.38603
3.1294	8.69734
3.1181	9.05541
3.1069	8.90393
3.0958	8.53351
3.0848	8.70826
3.0738	8.32601
3.0629	8.44036
3.0521	8.36719
3.0413	8.16026
3.0307	7.95272
3.0201	8.10582
3.0096	7.89811
2.9991	7.92658
2.9887	7.31115
2.9784	8.23386
2.9682	8.00665
2.9581	7.85268
2.948	7.33413
2.9379	7.81542
2.928	8.26123
2.9181	7.5793
2.9083	7.45356
2.8985	8.61491
2.8888	8.49895
2.8792	8.44738
2.8697	8.81611
2.8602	8.85978
2.8507	8.98703
2.8413	9.28218
2.832	9.96399
2.8228	10.671
2.8136	10.8766
2.8045	12.3644
2.7954	11.941
2.7864	12.9826
2.7774	13.3169
2.7685	15.1684
2.7597	16.8585
2.7509	18.5776
2.7422	21.6397
2.7335	23.59
2.7249	26.9722
2.7163	30.0403
2.7078	32.2951
2.6994	34.6136
2.691	36.9279
2.6826	38.3073
2.6743	39.3056
2.666	41.2754
2.6578	41.0046
2.6497	41.952
2.6416	42.4633
2.6336	42.8681
2.6256	42.9647
2.6176	44.0422
2.6097	43.4668
2.6018	43.5413
2.594	44.127
2.5863	43.324
2.5785	43.3873
2.5709	42.2697
2.5633	41.5059
2.5557	39.2148
2.5481	37.1313
2.5406	36.03
2.5332	36.4351
2.5258	36.9324
2.5184	37.2578
2.5111	38.2883
2.5038	38.4087
2.4966	38.8652
2.4894	39.462
2.4823	39.6732
2.4752	40.3328
2.4681	41.9573
2.4611	42.8847
2.4541	43.9034
2.4471	43.7722
2.4402	45.1354
2.4333	45.6144
2.4265	46.3635
2.4197	47.0771
2.413	47.039
2.4063	47.4182
2.3996	47.83
2.3929	47.6664
2.3863	48.9249
2.3798	48.3575
2.3732	48.372
2.3667	47.5531
2.3603	46.0135
2.3538	45.1292
2.3474	43.9954
2.3411	44.2128
2.3347	43.8461
2.3285	45.2003
2.3222	45.5977
2.316	46.1791
2.3098	46.8448
2.3036	47.0736
2.2975	47.2806
2.2914	48.0319
2.2854	48.0119
2.2793	49.5103
2.2733	49.9218
2.2674	49.9642
2.2614	51.0524
2.2555	51.682
2.2497	51.726
2.2438	53.0927
2.238	52.8526
2.2322	52.8109
2.2265	53.454
2.2208	52.8609
2.2151	52.7288
2.2094	52.6487
2.2038	53.08
2.1982	53.5515
2.1926	52.6763
2.187	52.9623
2.1815	52.8037
2.176	52.5389
2.1706	52.7227
2.1651	52.046
2.1597	52.2961
2.1543	52.0722
2.149	51.7361
2.1436	52.7588
2.1383	51.9533
2.1331	51.8946
2.1278	51.6325
2.1226	52.4275
2.1174	52.2611
2.1122	52.7986
2.1071	52.358
2.1019	52.0876
2.0968	51.1857
2.0918	52.6603
2.0867	52.4548
2.0817	52.1064
2.0767	53.52
2.0717	50.6422
2.0667	52.3821
2.0618	52.1776
2.0569	50.5775
2.052	52.1916
2.0472	52.0278
2.0423	51.8424
2.0375	50.9963
2.0327	51.4259
2.028	49.8327
2.0232	51.6618
2.0185	52.7043
2.0138	51.6396
2.0091	50.3968
2.0044	49.1865
1.9998	49.9243
