Name: Chalcopyrite CuFeS_2
Type: Mineral
Class: Sulfides
Particle Size: 45-125um
Sample No.: S-4A
Owner: JPL
Wavelength Range: VNIR-SWIR
Origin: Canada, Quebec, Rouyn District
Measurement: Hemispherical reflectance
X Units: Wavelength (micrometers)
Y Units: Reflectance (percent)
wavelength	value
0.4	2.55
0.403	2.87
0.406	2.75
0.409	2.81
0.412	2.81
0.415	2.87
0.418	2.93
0.421	3.11
0.424	3.12
0.427	3.29
0.43	3.41
0.433	3.52
0.436	3.58
0.439	3.77
0.442	4.07
0.445	4.23
0.448	4.35
0.451	4.42
0.454	4.66
0.457	4.81
0.46	5.03
0.463	5.24
0.466	5.43
0.469	5.54
0.472	5.72
0.475	5.89
0.478	6.13
0.481	6.3
0.484	6.46
0.487	6.73
0.49	6.75
0.493	6.94
0.496	7.26
0.499	7.36
0.502	7.5
0.505	7.66
0.508	7.79
0.511	7.93
0.514	8.18
0.517	8.33
0.52	8.51
0.523	8.68
0.526	8.76
0.529	8.95
0.532	9.02
0.535	9.12
0.538	9.36
0.541	9.48
0.544	9.56
0.547	9.68
0.55	9.81
0.553	9.98
0.556	10
0.559	10.12
0.562	10.37
0.565	10.4
0.568	10.4
0.571	10.58
0.574	10.56
0.577	10.68
0.58	10.78
0.583	10.78
0.586	10.8
0.589	10.97
0.592	10.94
0.595	11
0.598	11.19
0.601	11.27
0.604	11.31
0.607	11.37
0.61	11.35
0.613	11.44
0.616	11.53
0.619	11.58
0.622	11.5
0.625	11.55
0.628	11.68
0.631	11.74
0.634	11.87
0.637	11.79
0.64	11.8
0.643	11.92
0.646	11.92
0.649	12.02
0.652	12.08
0.655	12.06
0.658	12.03
0.661	12.13
0.664	12.21
0.667	12.2
0.67	12.23
0.673	12.24
0.676	12.22
0.679	12.31
0.682	12.37
0.685	12.27
0.688	12.39
0.691	12.31
0.694	12.32
0.697	12.36
0.7	12.29
0.703	12.46
0.706	12.57
0.709	12.57
0.712	12.59
0.715	12.54
0.718	12.59
0.721	12.58
0.724	12.64
0.727	12.74
0.73	12.58
0.733	12.59
0.736	12.59
0.739	12.73
0.742	12.71
0.745	12.69
0.748	12.59
0.751	12.64
0.754	12.69
0.757	12.71
0.76	12.69
0.763	12.79
0.766	12.8
0.769	12.61
0.772	12.71
0.775	12.76
0.778	12.72
0.781	12.64
0.784	12.91
0.787	12.88
0.79	12.88
0.793	12.89
0.796	12.9
0.799	12.83
0.808	13
0.82	13.02
0.832	12.95
0.844	13.08
0.856	13.06
0.868	13.04
0.88	12.98
0.892	13.04
0.904	13.12
0.916	13.17
0.928	13.13
0.94	13.18
0.952	13.26
0.964	13.41
0.976	13.55
0.988	13.65
1	13.67
1.012	13.76
1.024	13.94
1.036	14.07
1.048	14.09
1.06	14.26
1.072	14.38
1.084	14.49
1.096	14.48
1.108	14.6
1.12	14.68
1.132	14.73
1.144	14.8
1.156	14.84
1.168	14.86
1.18	14.88
1.192	14.98
1.204	14.99
1.216	15.05
1.228	15.02
1.24	15.13
1.252	15.11
1.264	15.14
1.276	15.13
1.288	15.3
1.3	15.25
1.312	15.19
1.324	15.23
1.336	15.36
1.348	15.35
1.36	15.27
1.372	15.37
1.384	15.35
1.396	15.43
1.408	15.37
1.42	15.43
1.432	15.42
1.444	15.53
1.456	15.49
1.468	15.49
1.48	15.46
1.492	15.5
1.504	15.55
1.516	15.5
1.528	15.52
1.54	15.53
1.552	15.56
1.564	15.59
1.576	15.59
1.588	15.49
1.6	15.44
1.612	15.49
1.624	15.5
1.636	15.59
1.648	15.6
1.66	15.53
1.672	15.51
1.684	15.63
1.696	15.58
1.708	15.53
1.72	15.61
1.732	15.57
1.744	15.52
1.756	15.46
1.768	15.51
1.78	15.49
1.792	15.37
1.804	15.42
1.816	15.42
1.828	15.38
1.84	15.34
1.852	15.31
1.864	15.35
1.876	15.43
1.888	15.37
1.9	15.26
1.912	15.35
1.924	15.32
1.936	15.22
1.948	15.2
1.96	15.22
1.972	15.27
1.984	15.32
1.996	15.28
2.008	15.27
2.02	15.35
2.032	15.38
2.044	15.31
2.056	15.33
2.068	15.44
2.08	15.43
2.092	15.43
2.104	15.4
2.116	15.47
2.128	15.52
2.14	15.48
2.152	15.48
2.164	15.46
2.176	15.39
2.188	15.33
2.2	15.44
2.212	15.42
2.224	15.43
2.236	15.41
2.248	15.47
2.26	15.48
2.272	15.55
2.284	15.54
2.296	15.51
2.308	15.44
2.32	15.58
2.332	15.52
2.344	15.65
2.356	15.66
2.368	15.66
2.38	15.74
2.392	15.72
2.404	15.72
2.416	15.64
2.428	15.76
2.44	15.77
2.452	15.77
2.464	15.78
2.476	15.77
2.488	15.88
2.5	15.97
