Name: Siderite Fe^2+CO_3
Type: Mineral
Class: Carbonates
Particle Size: 45-125um
Sample No.: C-9A
Owner: JPL
Wavelength Range: VNIR-SWIR
Measurement: Hemispherical reflectance
X Units: Wavelength (micrometers)
Y Units: Reflectance (percent)
wavelength	value
0.4	11.32
0.403	12.41
0.406	12.52
0.409	13.04
0.412	13.78
0.415	13.89
0.418	14.35
0.421	14.41
0.424	14.92
0.427	14.98
0.43	15.32
0.433	15.61
0.436	15.84
0.439	16.07
0.442	16.07
0.445	16.35
0.448	16.52
0.451	17.04
0.454	17.1
0.457	17.62
0.46	17.67
0.463	18.25
0.466	18.25
0.469	18.82
0.472	18.93
0.475	19.22
0.478	19.23
0.481	19.45
0.484	19.74
0.487	20.26
0.49	21.01
0.493	21.64
0.496	22.32
0.499	22.49
0.502	22.9
0.505	22.95
0.508	23.24
0.511	23.59
0.514	23.99
0.517	24.56
0.52	24.9
0.523	25.76
0.526	26.22
0.529	27.14
0.532	27.76
0.535	28.45
0.538	29.37
0.541	30
0.544	30.91
0.547	31.37
0.55	32.34
0.553	32.74
0.556	33.44
0.559	33.61
0.562	34.75
0.565	35.04
0.568	35.83
0.571	36.01
0.574	36.58
0.577	36.81
0.58	37.32
0.583	37.61
0.586	37.96
0.589	38.36
0.592	38.53
0.595	39.04
0.598	39.1
0.601	39.56
0.604	39.56
0.607	39.9
0.61	40.14
0.613	40.25
0.616	40.54
0.619	40.48
0.622	40.99
0.625	41.1
0.628	41.39
0.631	41.57
0.634	41.8
0.637	42.3
0.64	42.36
0.643	42.94
0.646	43.05
0.649	43.51
0.652	43.91
0.655	44.25
0.658	44.77
0.661	44.94
0.664	45.74
0.667	45.91
0.67	46.6
0.673	46.83
0.676	47.29
0.679	47.75
0.682	48.09
0.685	48.5
0.688	48.73
0.691	49.29
0.694	49.35
0.697	49.64
0.7	49.93
0.703	49.75
0.706	50.21
0.709	50.21
0.712	50.27
0.715	50.33
0.718	50.04
0.721	50.27
0.724	49.87
0.727	50.04
0.73	49.75
0.733	49.46
0.736	49.29
0.739	48.84
0.742	48.78
0.745	48.26
0.748	47.92
0.751	47.57
0.754	47.07
0.757	46.72
0.76	46.03
0.763	45.86
0.766	45.06
0.769	44.48
0.772	44.02
0.775	43.17
0.778	42.76
0.781	41.91
0.784	41.39
0.787	40.54
0.79	39.9
0.793	39.44
0.796	38.59
0.799	37.67
0.808	35.61
0.82	32.46
0.832	29.65
0.844	26.85
0.856	24.15
0.868	21.75
0.88	19.75
0.892	17.74
0.904	16.14
0.916	14.94
0.928	13.62
0.94	12.53
0.952	11.68
0.964	10.98
0.976	10.36
0.988	9.96
1	9.61
1.012	9.44
1.024	9.32
1.036	9.1
1.048	9.15
1.06	9.15
1.072	9.27
1.084	9.32
1.096	9.55
1.108	9.55
1.12	9.73
1.132	9.73
1.144	9.79
1.156	9.84
1.168	9.9
1.18	9.83
1.192	9.95
1.204	10.06
1.216	10.06
1.228	10.06
1.24	10.12
1.252	10.24
1.264	10.51
1.276	10.69
1.288	11.08
1.3	11.48
1.312	11.88
1.324	12.5
1.336	13.12
1.348	13.81
1.36	14.67
1.372	15.52
1.384	16.78
1.396	17.81
1.408	19.24
1.42	20.61
1.432	22.27
1.444	23.99
1.456	25.82
1.468	27.71
1.48	29.59
1.492	31.71
1.504	34
1.516	36.11
1.528	38.16
1.54	40.29
1.552	42.34
1.564	44.28
1.576	46.28
1.588	48.05
1.6	49.77
1.612	51.3
1.624	52.66
1.636	53.9
1.648	55.2
1.66	56.21
1.672	56.94
1.684	57.78
1.696	58.46
1.708	59.19
1.72	59.71
1.732	60.16
1.744	60.44
1.756	60.73
1.768	60.9
1.78	61.18
1.792	61.47
1.804	61.62
1.816	61.56
1.828	61.62
1.84	61.62
1.852	61.34
1.864	61.26
1.876	61.25
1.888	60.89
1.9	60.87
1.912	60.75
1.924	60.57
1.936	60.72
1.948	60.81
1.96	60.67
1.972	60.79
1.984	60.81
1.996	60.98
2.008	61.21
2.02	61.57
2.032	61.71
2.044	61.89
2.056	61.89
2.068	61.92
2.08	62.02
2.092	61.95
2.104	61.92
2.116	61.73
2.128	61.55
2.14	61.24
2.152	61.05
2.164	60.78
2.176	60.5
2.188	60.23
2.2	59.93
2.212	59.21
2.224	58.58
2.236	57.76
2.248	56.67
2.26	55.6
2.272	54.52
2.284	53.39
2.296	52.22
2.308	51.46
2.32	51.29
2.332	51.11
2.344	51.61
2.356	52.66
2.368	53.76
2.38	54.69
2.392	55.07
2.404	55.13
2.416	54.61
2.428	53.61
2.44	52.15
2.452	50.37
2.464	48.3
2.476	46.25
2.488	44.52
2.5	43.24
