Name: Red-orange sandy soil.
Type: Soils
Class: Aridisol
Particle Size: see additional information
Sample No.: fgg009
Owner: University of NSW
Origin: Fowlers Gap, western New South Wales, Australia
Description: Parent material consists of aeolian silts/clays and sandstone debris.
Measurement: Directional hemispherical reflectance
X Units: Wavelength (micrometers)
Y Units: Reflectance (percent)
wavelength	value
14.013	1.9533
13.79	2.4595
13.573	2.5794
13.363	2.3009
13.16	2.4446
12.962	2.6948
12.771	2.759
12.585	2.5146
12.404	1.9228
12.228	1.7901
12.058	2.3744
11.892	3.219
11.73	3.4529
11.573	3.329
11.42	3.2762
11.271	3.4336
11.126	3.4501
10.985	3.3165
10.847	2.9676
10.713	3.0394
10.581	3.2022
10.453	3.3616
10.328	3.6022
10.206	4.0734
10.087	4.6075
9.971	5.3695
9.857	5.7284
9.746	6.1902
9.637	7.2632
9.531	7.9605
9.427	9.0356
9.325	10.2256
9.226	9.9821
9.128	9.1748
9.033	8.2323
8.939	8.5058
8.848	9.1971
8.758	9.1942
8.67	8.3399
8.584	8.6981
8.5	9.8653
8.417	10.8175
8.336	11.8061
8.256	13.4519
8.178	13.559
8.101	10.3819
8.026	7.242
7.952	5.3698
7.88	3.7713
7.809	3.0412
7.739	2.8025
7.67	2.5125
7.602	2.3724
7.536	2.3459
7.471	2.2942
7.407	2.3588
7.344	2.3864
7.282	2.4693
7.221	2.9164
7.161	3.0224
7.103	3.3514
7.045	3.3641
6.988	3.4478
6.932	3.9138
6.876	3.9899
6.822	4.0762
6.769	4.0329
6.716	3.9048
6.664	4.1808
6.613	4.1509
6.563	3.8526
6.514	4.4695
6.465	5.3432
6.417	5.8023
6.37	5.1605
6.323	4.5344
6.277	3.6128
6.232	3.1073
6.187	2.7932
6.143	2.7645
6.1	2.9868
6.057	3.1509
6.015	3.4652
5.973	3.5726
5.932	3.7432
5.892	4.7454
5.852	5.9332
5.813	7.1962
5.774	8.3429
5.735	9.1956
5.698	9.6579
5.66	8.4452
5.623	6.7595
5.587	6.2301
5.551	6.5932
5.516	7.333
5.481	8.3177
5.446	8.9253
5.412	7.527
5.378	5.5609
5.345	5.033
5.312	5.2623
5.28	5.8793
5.248	7.1525
5.216	9.309
5.185	9.9969
5.154	9.8674
5.123	9.9291
5.093	9.6591
5.063	9.1012
5.034	9.0759
5.005	9.2366
4.976	10.188
4.947	12.3876
4.919	13.8219
4.891	18.1112
4.864	21.9261
4.837	23.9005
4.81	25.1674
4.783	26.0902
4.757	26.9283
4.731	27.359
4.705	27.1467
4.68	26.2721
4.654	27.8369
4.629	29.2905
4.605	30.2333
4.58	30.643
4.556	30.7018
4.532	29.816
4.509	27.9754
4.485	26.8256
4.462	26.6461
4.439	27.7149
4.416	28.6809
4.394	29.9808
4.372	31.5063
4.35	32.5051
4.328	33.0626
4.306	33.0136
4.285	32.9156
4.264	33.1829
4.243	33.7186
4.222	34.1058
4.202	34.4622
4.181	34.794
4.161	35.1722
4.141	35.6299
4.122	36.079
4.102	36.4463
4.083	36.8573
4.063	37.1001
4.044	37.2734
4.026	37.2083
4.007	37.301
3.988	37.3521
3.97	37.5248
3.952	37.5786
3.934	37.7272
3.916	37.5751
3.898	37.4346
3.881	36.9876
3.864	36.8077
3.846	36.4767
3.829	36.2446
3.812	36.0516
3.796	35.5819
3.779	35.1083
3.763	34.633
3.746	33.9973
3.73	33.487
3.714	33.1274
3.698	32.6921
3.682	32.2392
3.667	31.8087
3.651	31.3326
3.636	30.8415
3.621	30.1319
3.606	29.4923
3.591	28.6469
3.576	28.032
3.561	27.3495
3.546	26.5718
3.532	25.7545
3.518	24.6155
3.503	23.273
3.489	23.1305
3.475	22.4423
3.461	21.8528
3.447	21.0491
3.434	20.123
3.42	18.8516
3.407	18.4538
3.393	18.2539
3.38	17.8299
3.367	17.3082
3.354	16.9742
3.341	16.3759
3.328	15.7105
3.315	15.1172
3.302	14.5542
3.29	13.9333
3.277	13.3166
3.265	12.6306
3.253	12.179
3.24	11.6034
3.228	11.1517
3.216	10.7446
3.204	10.126
3.193	9.6327
3.181	9.1698
3.169	8.7203
3.158	8.2506
3.146	7.8367
3.135	7.4942
3.123	6.9881
3.112	6.8323
3.101	6.612
3.09	6.3805
3.079	6.157
3.068	6.1449
3.057	6.029
3.046	5.8277
3.036	5.6191
3.025	5.7928
3.014	5.6578
3.004	5.2303
2.994	5.424
2.983	5.1035
2.973	5.0988
2.963	4.8093
2.953	4.9044
2.943	4.8497
2.933	4.7667
2.923	4.7345
2.913	4.8137
2.903	4.9824
2.893	4.9494
2.884	5.0458
2.874	5.0362
2.865	5.265
2.855	5.2168
2.846	5.5777
2.836	5.2748
2.827	5.4218
2.818	5.3007
2.809	5.2025
2.8	4.8435
2.791	4.433
2.782	3.8676
2.773	3.8009
2.764	2.8736
2.755	2.9879
2.746	3.3524
2.737	3.5527
2.729	4.4351
2.72	5.9316
2.712	6.0213
2.703	4.7871
2.695	10.9721
2.686	20.8606
2.678	28.3061
2.67	32.8618
2.662	35.4357
2.654	37.3232
2.645	38.7376
2.637	39.9438
2.629	40.8555
2.621	41.7762
2.613	42.0796
2.605	42.9341
2.598	42.9031
2.59	43.0849
2.582	43.5922
2.574	43.7586
2.567	44.0648
2.559	44.3615
2.552	44.7429
2.544	44.9188
2.537	44.9676
2.529	45.1939
2.522	45.215
2.515	45.2413
2.507	45.5101
2.5	45.7594
2.493	46.0412
2.486	46.3207
2.478	46.7185
2.471	46.9001
2.464	47.3543
2.457	47.736
2.45	47.7556
2.443	48.165
2.437	48.4649
2.43	49.1098
2.423	49.5249
2.416	49.9635
2.409	50.5518
2.403	50.5904
2.396	50.6307
2.389	50.5217
2.383	50.5833
2.376	50.9166
2.37	51.2371
2.363	51.5439
2.357	51.5719
2.35	51.9142
2.344	52.3911
2.338	52.5561
2.331	53.069
2.325	53.464
2.319	53.5704
2.313	54.0164
2.306	54.3228
2.3	54.7573
2.294	54.8673
2.288	55.197
2.282	55.1514
2.276	55.5639
2.27	55.4613
2.264	55.5129
2.258	55.3706
2.252	54.9763
2.247	54.6575
2.241	54.8248
2.235	54.6001
2.229	54.4266
2.223	54.082
2.218	53.2806
2.212	51.4032
2.206	51.1188
2.201	52.5007
2.195	53.1246
2.189	53.756
2.184	54.5225
2.179	54.8481
2.173	55.3017
2.168	55.5507
2.162	55.7931
2.157	56.4954
2.151	56.8196
2.146	57.4798
2.141	57.8689
2.135	58.1604
2.13	58.2928
2.125	58.1078
2.12	58.2564
2.115	58.1934
2.109	58.3059
2.104	58.3408
2.099	58.4024
2.094	58.5593
2.089	58.3211
2.084	58.4075
2.079	58.1764
2.074	58.4489
2.069	58.5247
2.064	58.3948
2.059	58.4952
2.054	58.1364
2.049	58.211
2.045	58.452
2.04	58.2269
2.035	58.0008
2.03	57.8523
2.025	57.8403
2.021	57.5966
2.016	57.5517
2.011	57.3384
2.007	56.9586
2.002	56.9355
