Name: Epidote Ca_2(Al,Fe^3+)_3O.SiO_4.Si_2O_7.OH
Type: Mineral
Class: Silicates
Subclass: Sorosilicate
Particle Size: 45-125um
Sample No.: SS-1C
Owner: JPL
Origin: USA, Colorado.
Measurement: Hemispherical reflectance
X Units: Wavelength (micrometers)
Y Units: Reflectance (percent)
wavelength	value
2.5	56.0337
2.494	56.255
2.488	56.7489
2.482	57.2801
2.476	57.8345
2.47	58.2356
2.464	58.6227
2.458	59.1554
2.452	59.7516
2.446	60.2085
2.44	60.6273
2.434	60.9938
2.428	61.32
2.422	61.2114
2.416	60.9193
2.41	60.4901
2.404	59.7898
2.398	58.7175
2.392	57.4889
2.386	56.3117
2.38	55.1617
2.374	53.5676
2.368	50.7997
2.362	46.7054
2.356	41.5971
2.35	36.7597
2.344	33.3363
2.338	31.783
2.332	32.0331
2.326	33.6215
2.32	36.0511
2.314	38.9225
2.308	42.0148
2.302	45.0902
2.296	47.7073
2.29	50.3282
2.284	52.6383
2.278	54.4351
2.272	55.2622
2.266	54.9865
2.26	53.7105
2.254	52.8385
2.248	54.0201
2.242	57.1401
2.236	60.7152
2.23	63.4748
2.224	65.272
2.218	66.3094
2.212	67.0536
2.206	67.4652
2.2	67.9676
2.194	68.3233
2.188	68.6941
2.182	69.0003
2.176	69.47
2.17	69.7527
2.164	70.0678
2.158	70.2894
2.152	70.5029
2.146	70.4993
2.14	70.4584
2.134	70.3607
2.128	70.0053
2.122	69.9158
2.116	69.7587
2.11	69.5891
2.104	69.6418
2.098	69.5246
2.092	69.5587
2.086	69.6011
2.08	69.6815
2.074	69.6828
2.068	69.6562
2.062	69.5862
2.056	69.5523
2.05	69.4843
2.044	69.5439
2.038	69.3935
2.032	69.161
2.026	68.9189
2.02	68.7155
2.014	68.5161
2.008	68.2867
2.002	68.0448
1.996	67.6892
1.99	67.3739
1.984	67.0681
1.978	66.7567
1.972	66.2542
1.966	65.837
1.96	65.261
1.954	64.8647
1.948	64.4185
1.942	64.4233
1.936	64.5156
1.93	64.3715
1.924	63.8877
1.918	63.3783
1.912	62.9275
1.906	63.262
1.9	64.4542
1.894	65.8228
1.888	66.6793
1.882	67.293
1.876	67.573
1.87	68.0053
1.864	68.19
1.858	68.2108
1.852	68.052
1.846	67.6057
1.84	67.1948
1.834	66.7826
1.828	66.6673
1.822	67.1182
1.816	67.5736
1.81	67.7652
1.804	67.8114
1.798	67.7666
1.792	67.6182
1.786	67.5345
1.78	67.4063
1.774	67.3827
1.768	67.1826
1.762	67.179
1.756	66.9695
1.75	66.9543
1.744	66.9016
1.738	66.8173
1.732	66.6476
1.726	66.6508
1.72	66.5
1.714	66.3727
1.708	66.2305
1.702	66.1216
1.696	65.9863
1.69	65.8146
1.684	65.6669
1.678	65.598
1.672	65.5301
1.666	65.4692
1.66	65.2717
1.654	65.2159
1.648	65.1427
1.642	65.0568
1.636	64.8215
1.63	64.7161
1.624	64.5674
1.618	64.497
1.612	64.313
1.606	64.112
1.6	63.9248
1.594	63.633
1.588	63.3889
1.582	63.0148
1.576	62.745
1.57	62.2879
1.564	61.8668
1.558	61.2361
1.552	60.7886
1.546	60.5923
1.54	60.7669
1.534	61.0539
1.528	61.3386
1.522	61.6234
1.516	61.9403
1.51	62.2696
1.504	62.4846
1.498	62.5373
1.492	62.6977
1.486	62.7871
1.48	62.7136
1.474	62.7173
1.468	62.6451
1.462	62.5663
1.456	62.5392
1.45	62.3329
1.444	62.1494
1.438	62.0441
1.432	61.8465
1.426	61.6172
1.42	61.4309
1.414	61.1935
1.408	60.7465
1.402	60.2838
1.396	59.283
1.39	60.5727
1.384	61.896
1.378	61.8344
1.372	61.6069
1.366	61.5375
1.36	61.3833
1.354	61.1475
1.348	60.9048
1.342	60.7108
1.336	60.514
1.33	60.3925
1.324	60.0512
1.318	59.9034
1.312	59.6921
1.306	59.5304
1.3	59.2163
1.294	59.0744
1.288	58.8058
1.282	58.435
1.276	58.1955
1.27	57.8439
1.264	57.5102
1.258	57.1333
1.252	56.7482
1.246	56.3048
1.24	55.9321
1.234	55.4519
1.228	54.9978
1.222	54.4855
1.216	54.0145
1.21	53.4463
1.204	52.8843
1.198	52.342
1.192	51.7982
1.186	51.196
1.18	50.5916
1.174	50.0203
1.168	49.5419
1.162	49.0544
1.156	48.4842
1.15	48.0629
1.144	47.5074
1.138	47.0441
1.132	46.5602
1.126	46.101
1.12	45.6826
1.114	45.2839
1.108	44.853
1.102	44.4666
1.096	44.0935
1.09	43.7502
1.084	43.4188
1.078	43.3093
1.072	42.9986
1.066	42.7865
1.06	42.4985
1.054	42.3701
1.048	42.2771
1.042	42.1161
1.036	42.0861
1.03	41.9877
1.024	41.9823
1.018	41.9073
1.012	41.9502
1.006	42.0162
1	41.9781
0.994	41.9882
0.988	42.0107
0.982	42.0467
0.976	41.9784
0.97	42.1661
0.964	42.0735
0.958	42.1682
0.952	42.148
0.946	42.0905
0.94	42.1943
0.934	42.1969
0.928	42.1108
0.922	42.1721
0.916	42.1622
0.91	42.1621
0.904	42.0443
0.898	41.9744
0.892	41.913
0.886	41.7667
0.88	41.561
0.874	41.4364
0.868	41.2379
0.862	41.1173
0.856	41.2941
0.85	41.204
0.844	41.083
0.838	40.9673
0.832	40.8679
0.826	40.7784
0.82	40.7524
0.814	40.6948
0.808	40.625
0.802	40.5745
0.796	40.4918
0.79	40.366
0.784	40.2763
0.778	40.1463
0.772	39.9672
0.766	39.8176
0.76	39.6334
0.754	39.4297
0.748	39.2649
0.742	39.0077
0.736	38.792
0.73	38.5642
0.724	38.3101
0.718	38.0025
0.712	37.6939
0.706	37.373
0.7	36.9973
0.694	36.6202
0.688	36.1858
0.682	35.7246
0.676	35.2296
0.67	34.7145
0.664	34.1907
0.658	33.6787
0.652	33.1758
0.646	32.7405
0.64	32.3146
0.634	31.9271
0.628	31.5941
0.622	31.3271
0.616	31.1277
0.61	30.9953
0.604	30.9182
0.598	30.9165
0.592	30.9594
0.586	31.0079
0.58	31.0826
0.574	31.1459
0.568	31.1961
0.562	31.1992
0.556	31.2063
0.55	31.1724
0.544	30.997
0.538	30.6049
0.532	30.052
0.526	29.4132
0.52	28.6497
0.514	27.7082
0.508	26.5013
0.502	25.1232
0.496	23.3438
0.49	21.2239
0.484	18.8501
0.478	16.8271
0.472	15.8426
0.466	16.201
0.46	16.1595
0.454	15.4742
0.448	16.6749
0.442	16.59
0.436	15.5564
0.43	13.8947
0.424	12.3722
0.418	11.1349
0.412	10.2187
0.406	9.65512
0.4	9.46151
