Name: Quartz SiO_2
Type: Mineral
Class: Silicates
Subclass: Tectosilicates
Particle Size: 45-125um
Sample No.: TS-1B
Owner: JPL
Origin: Brazil, Minas Gerais
Description: Smoky quartz.
Measurement: Hemispherical reflectance
X Units: Wavelength (micrometers)
Y Units: Reflectance (percent)
wavelength	value
15.385	7.1285
15.116	7.0115
14.856	6.1704
14.605	4.8823
14.362	4.4066
14.128	4.1261
13.9	5.1854
13.68	5.7996
13.467	5.8927
13.26	6.0813
13.06	6.9905
12.866	11.5465
12.677	8.9475
12.494	11.1613
12.316	1.3852
12.143	2.0769
11.974	3.2493
11.811	4.3795
11.651	4.9979
11.496	5.9334
11.345	6.3175
11.198	6.3819
11.055	6.8769
10.915	7.1787
10.779	7.1534
10.647	7.1914
10.517	7.5371
10.39	7.7047
10.267	7.9746
10.146	8.5508
10.029	9.2987
9.914	10.0849
9.801	11.4228
9.691	13.6123
9.584	16.3405
9.479	22.0897
9.376	37.0639
9.275	51.4423
9.177	54.0718
9.08	55.1642
8.986	55.2134
8.893	54.4192
8.803	51.5913
8.714	47.1763
8.627	30.1106
8.542	48.1181
8.458	49.6423
8.376	47.9491
8.296	46.6783
8.217	45.2046
8.139	35.968
8.063	22.7087
7.989	14.3925
7.916	7.9995
7.844	4.4637
7.773	2.7436
7.704	1.455
7.636	0.7877
7.569	0.2882
7.503	0.1875
7.439	0.0996
7.375	0
7.313	0.0638
7.252	0.1463
7.191	0.3113
7.132	0.3712
7.073	0.6013
7.016	0.8332
6.96	1.0662
6.904	1.3129
6.849	1.3082
6.795	1.3503
6.742	1.16
6.69	1.2638
6.639	1.4166
6.588	1.2646
6.538	1.416
6.489	2.5366
6.441	3.6109
6.393	3.5332
6.346	2.4604
6.3	1.7545
6.254	1.2571
6.209	1.2425
6.165	1.399
6.121	2.472
6.078	3.4186
6.036	3.5602
5.994	3.1407
5.953	2.1706
5.912	2.6112
5.872	3.7232
5.832	5.148
5.793	6.4749
5.755	7.9674
5.716	8.9371
5.679	7.5624
5.642	4.4087
5.605	2.9607
5.569	2.8042
5.533	3.2589
5.498	4.3326
5.463	5.5544
5.429	4.8638
5.395	2.6769
5.362	1.7457
5.329	1.7266
5.296	1.8539
5.264	2.2395
5.232	3.7607
5.2	5.4434
5.169	5.3869
5.139	4.9371
5.108	4.9204
5.078	4.0626
5.049	3.8586
5.019	3.6456
4.99	4.0754
4.962	5.71
4.933	7.476
4.905	11.5465
4.878	20.8761
4.85	28.0133
4.823	32.8516
4.796	36.6851
4.77	39.8386
4.744	42.1612
4.718	42.5256
4.692	37.4686
4.667	38.6672
4.642	45.0579
4.617	50.0858
4.592	52.0634
4.568	51.8205
4.544	48.0133
4.52	40.7649
4.497	33.157
4.474	30.6548
4.45	32.3965
4.428	34.5986
4.405	38.0567
4.383	42.5658
4.361	47.6242
4.339	50.9976
4.317	51.7082
4.296	50.8849
4.274	51.9525
4.253	53.9709
4.233	53.0556
4.212	53.4484
4.191	53.6749
4.171	55.4942
4.151	56.8992
4.131	58.4506
4.112	60.4549
4.092	62.5817
4.073	64.3266
4.054	64.7293
4.035	64.4367
4.016	63.957
3.998	64.1579
3.979	65.2136
3.961	66.5767
3.943	67.9919
3.925	68.9228
3.907	68.8025
3.89	67.8382
3.872	66.8269
3.855	66.3548
3.838	66.4534
3.821	67.1713
3.804	67.7375
3.787	67.5138
3.771	66.5869
3.754	65.7449
3.738	65.4639
3.722	66.3177
3.706	67.9586
3.69	70.0505
3.675	72.0411
3.659	73.4999
3.644	74.2165
3.628	74.5789
3.613	74.6546
3.598	75.0167
3.583	75.5239
3.568	76.2814
3.554	77.005
3.539	77.806
3.525	78.4777
3.51	78.5218
3.496	78.6952
3.482	79.6166
3.468	80.1424
3.454	80.3356
3.441	79.9777
3.427	79.1621
3.413	78.4566
3.4	79.309
3.387	79.8035
3.373	79.7136
3.36	80.8971
3.347	81.4171
3.334	81.6185
3.321	81.7286
3.309	81.4161
3.296	81.5656
3.284	81.2785
3.271	81.2922
3.259	81.2807
3.247	81.2386
3.234	81.2188
3.222	81.2262
3.21	81.0753
3.199	80.9778
3.187	80.7947
3.175	80.7636
3.163	80.5596
3.152	80.1633
3.14	79.0366
3.129	78.4153
3.118	78.7057
3.107	79.2884
3.095	79.9432
3.084	79.9906
3.073	79.8319
3.063	79.18
3.052	78.2404
3.041	77.2699
3.03	76.8504
3.02	77.0515
3.009	77.5157
2.999	77.9954
2.988	78.2294
2.978	78.0626
2.968	76.42
2.958	75.1777
2.948	77.0424
2.938	77.9137
2.928	78.1751
2.918	78.11
2.908	78.7001
2.898	79.3453
2.888	79.9766
2.879	80.3308
2.869	80.7413
2.86	80.9519
2.85	81.4315
2.841	81.6626
2.832	81.8383
2.822	81.7836
2.813	82.0433
2.804	82.404
2.795	82.3334
2.786	82.5494
2.777	82.7378
2.768	83.3314
2.759	82.8534
2.751	83.5781
2.742	84.4572
2.733	84.4124
2.725	85.4695
2.716	85.1275
2.707	85.104
2.699	85.288
2.691	85.5927
2.682	85.8788
2.674	85.8766
2.666	86.8555
2.658	85.8762
2.649	85.8039
2.641	85.901
2.633	86.1074
2.625	85.9891
2.617	86.4711
2.609	86.052
2.602	86.0063
2.594	86.7453
2.586	86.2371
2.578	85.7813
2.571	85.9563
2.563	86.2447
2.555	85.7186
2.548	85.7355
2.54	85.7077
2.533	85.7662
2.525	85.7064
2.518	85.7576
2.511	85.7256
2.504	85.7205
2.496	85.6957
2.489	85.6018
2.482	85.6811
2.475	85.5906
2.468	85.7936
2.461	85.6285
2.454	85.748
2.447	85.6878
2.44	85.629
2.433	85.6294
2.426	85.7215
2.419	85.8745
2.413	85.597
2.406	85.6715
2.399	85.566
2.393	85.6455
2.386	85.6491
2.379	85.6727
2.373	85.6542
2.366	85.6758
2.36	85.6191
2.354	85.6781
2.347	85.5746
2.341	85.5618
2.334	85.6201
2.328	85.7583
2.322	85.6892
2.316	85.7611
2.309	85.6022
2.303	85.5395
2.297	85.5355
2.291	85.6137
2.285	85.6283
2.279	85.6888
2.273	85.5777
2.267	85.696
2.261	85.7597
2.255	85.6257
2.249	85.5063
2.244	85.462
2.238	85.511
2.232	85.3551
2.226	85.5476
2.22	85.549
2.215	85.4269
2.209	85.5426
2.204	85.4607
2.198	85.5268
2.192	85.541
2.187	85.579
2.181	85.3866
2.176	85.3205
2.17	85.5942
2.165	85.5736
2.159	85.3279
2.154	85.6655
2.149	85.4208
2.143	85.3751
2.138	85.429
2.133	85.4756
2.128	85.5622
2.122	85.3499
2.117	85.5609
2.112	85.4886
2.107	85.5092
2.102	85.4449
2.097	85.4593
2.091	85.4906
2.086	85.2179
2.081	85.3999
2.076	85.3347
2.071	85.3016
2.066	85.4768
2.062	85.1985
2.057	85.3774
2.052	85.3613
2.047	85.3241
2.042	85.1886
2.037	85.4011
2.032	85.2376
2.028	85.4675
2.023	85.1407
2.018	85.4155
2.014	85.0881
2.009	85.2892
2.004	85.3157
