Name: Mica Peridotite
Type: Rock
Class: Igneous
Subclass: Ultramafic
Particle Size: Solid surface
Sample No.: Ward45.txt
Owner: JPL
Origin: Ward's Collection of American Rocks.  Sample locality - Ithaca, Tompkins County, New York.
Description: A greenish black rock with porphyritic texture.  The
Measurement: Hemispherical reflectance
X Units: Wavelength (micrometers)
Y Units: Reflectance (percent)
wavelength	value
2.5	8.00977
2.494	7.86838
2.488	8.00798
2.482	8.08142
2.476	8.06766
2.47	8.33833
2.464	8.61639
2.458	8.49887
2.452	8.66466
2.446	8.57202
2.44	8.56083
2.434	8.54623
2.428	8.59012
2.422	8.72401
2.416	8.7507
2.41	8.7478
2.404	8.83916
2.398	8.82691
2.392	8.89126
2.386	8.89297
2.38	8.99554
2.374	9.02566
2.368	9.12287
2.362	9.21989
2.356	9.13829
2.35	8.95749
2.344	8.79641
2.338	8.55124
2.332	8.44052
2.326	8.47186
2.32	8.54969
2.314	8.7345
2.308	8.97429
2.302	9.1051
2.296	9.27539
2.29	9.43217
2.284	9.47649
2.278	9.55658
2.272	9.74212
2.266	9.81596
2.26	10.0166
2.254	10.1593
2.248	10.2661
2.242	10.2976
2.236	10.3801
2.23	10.5087
2.224	10.63
2.218	10.7537
2.212	10.8097
2.206	10.8612
2.2	10.9564
2.194	10.923
2.188	10.9361
2.182	10.9676
2.176	10.997
2.17	11.0269
2.164	11.0424
2.158	11.0787
2.152	11.0657
2.146	11.0915
2.14	11.0546
2.134	11.0752
2.128	11.0395
2.122	11.0367
2.116	10.9825
2.11	10.9934
2.104	10.9656
2.098	10.95
2.092	11.0283
2.086	11.0508
2.08	11.0961
2.074	11.1295
2.068	11.1718
2.062	11.1456
2.056	11.1778
2.05	11.122
2.044	11.171
2.038	11.1632
2.032	11.1517
2.026	11.2024
2.02	11.1675
2.014	11.1409
2.008	11.0956
2.002	11.0528
1.996	11.076
1.99	11.1064
1.984	11.0478
1.978	11.0576
1.972	11.0232
1.966	11.0713
1.96	10.9851
1.954	11.1179
1.948	11.0204
1.942	11.0286
1.936	11.1633
1.93	11.1428
1.924	11.0004
1.918	11.1361
1.912	11.1496
1.906	11.2369
1.9	11.4601
1.894	11.4905
1.888	11.6348
1.882	11.74
1.876	11.8213
1.87	11.8674
1.864	11.9019
1.858	11.9475
1.852	11.9803
1.846	11.9645
1.84	12.0249
1.834	12.0076
1.828	12.0184
1.822	12.0039
1.816	12.0663
1.81	12.1812
1.804	12.0401
1.798	12.1126
1.792	12.1482
1.786	12.1473
1.78	12.1607
1.774	12.1636
1.768	12.1626
1.762	12.2012
1.756	12.1901
1.75	12.2631
1.744	12.293
1.738	12.2963
1.732	12.2809
1.726	12.2922
1.72	12.2829
1.714	12.4098
1.708	12.3529
1.702	12.4078
1.696	12.3355
1.69	12.4513
1.684	12.4386
1.678	12.423
1.672	12.4267
1.666	12.489
1.66	12.472
1.654	12.5486
1.648	12.5335
1.642	12.6183
1.636	12.5619
1.63	12.5133
1.624	12.4856
1.618	12.6206
1.612	12.5942
1.606	12.5539
1.6	12.5643
1.594	12.5852
1.588	12.5784
1.582	12.5879
1.576	12.5805
1.57	12.6122
1.564	12.5892
1.558	12.62
1.552	12.5827
1.546	12.6282
1.54	12.5879
1.534	12.5816
1.528	12.6397
1.522	12.6212
1.516	12.5569
1.51	12.6388
1.504	12.6762
1.498	12.6111
1.492	12.6157
1.486	12.5253
1.48	12.5302
1.474	12.5793
1.468	12.5345
1.462	12.5454
1.456	12.4817
1.45	12.4894
1.444	12.5136
1.438	12.5048
1.432	12.4925
1.426	12.5053
1.42	12.4493
1.414	12.3145
1.408	12.2579
1.402	11.9544
1.396	11.5974
1.39	11.7148
1.384	11.8533
1.378	12.2961
1.372	12.4119
1.366	12.5086
1.36	12.3805
1.354	12.5001
1.348	12.4125
1.342	12.5155
1.336	12.4663
1.33	12.4498
1.324	12.5035
1.318	12.435
1.312	12.4322
1.306	12.4122
1.3	12.3841
1.294	12.3441
1.288	12.347
1.282	12.3103
1.276	12.3327
1.27	12.3288
1.264	12.3201
1.258	12.2686
1.252	12.2749
1.246	12.2441
1.24	12.2208
1.234	12.2106
1.228	12.1374
1.222	12.1958
1.216	12.1261
1.21	12.195
1.204	12.1357
1.198	12.1071
1.192	12.1135
1.186	12.1204
1.18	12.0237
1.174	12.07
1.168	12.027
1.162	11.9842
1.156	11.9991
1.15	12.0007
1.144	12.0078
1.138	11.9771
1.132	12.0033
1.126	11.9977
1.12	11.9524
1.114	12.0246
1.108	12.0592
1.102	12.0404
1.096	12.0261
1.09	11.9969
1.084	11.9951
1.078	12.0926
1.072	12.0585
1.066	12.1031
1.06	12.112
1.054	12.092
1.048	12.0663
1.042	12.2003
1.036	12.0696
1.03	12.1528
1.024	12.1589
1.018	12.1784
1.012	12.2567
1.006	12.2242
1	12.2704
0.994	12.2901
0.988	12.2939
0.982	12.2924
0.976	12.2819
0.97	12.2732
0.964	12.304
0.958	12.2481
0.952	12.2227
0.946	12.2388
0.94	12.2387
0.934	12.2749
0.928	12.2269
0.922	12.2045
0.916	12.1549
0.91	12.1203
0.904	12.154
0.898	12.154
0.892	12.1723
0.886	12.2212
0.88	12.2256
0.874	12.2218
0.868	12.3312
0.862	12.2891
0.856	12.7271
0.85	12.7761
0.844	12.8192
0.838	12.8601
0.832	12.9149
0.826	12.9523
0.82	12.9764
0.814	13.0158
0.808	13.0314
0.802	13.0482
0.796	13.0302
0.79	13.0171
0.784	13.0071
0.778	12.9914
0.772	12.9524
0.766	12.9214
0.76	12.8892
0.754	12.8496
0.748	12.834
0.742	12.8044
0.736	12.7915
0.73	12.7844
0.724	12.7781
0.718	12.7817
0.712	12.7889
0.706	12.8094
0.7	12.8306
0.694	12.8582
0.688	12.895
0.682	12.9367
0.676	12.975
0.67	13.0174
0.664	13.0676
0.658	13.1188
0.652	13.174
0.646	13.2269
0.64	13.2783
0.634	13.3342
0.628	13.3885
0.622	13.4462
0.616	13.4983
0.61	13.5567
0.604	13.6116
0.598	13.6712
0.592	13.7346
0.586	13.7821
0.58	13.8299
0.574	13.8643
0.568	13.8968
0.562	13.915
0.556	13.9456
0.55	13.9434
0.544	13.937
0.538	13.9121
0.532	13.8816
0.526	13.8389
0.52	13.7819
0.514	13.7019
0.508	13.6086
0.502	13.4878
0.496	13.361
0.49	13.2771
0.484	13.1719
0.478	13.0239
0.472	12.8892
0.466	12.7709
0.46	12.6745
0.454	12.5882
0.448	12.4891
0.442	12.3537
0.436	12.1945
0.43	12.0257
0.424	11.833
0.418	11.6454
0.412	11.473
0.406	11.3215
0.4	11.1737
