Name: Quartz SiO_2
Type: Mineral
Class: Silicates
Subclass: Tectosilicates
Particle Size: 0-45um
Sample No.: TS-1A
Owner: JPL
Wavelength Range: VNIR-SWIR
Origin: USA, Arkansas, Montgomery County, Mount Ida
Description: Rock crystal.
Measurement: Hemispherical reflectance
X Units: Wavelength (micrometers)
Y Units: Reflectance (percent)
wavelength	value
0.4	78.7
0.403	78.81
0.406	78.94
0.409	78.91
0.412	78.97
0.415	79.07
0.418	79.04
0.421	79.17
0.424	79.18
0.427	79.09
0.43	79.25
0.433	79.4
0.436	79.23
0.439	79.39
0.442	79.31
0.445	79.42
0.448	79.55
0.451	79.4
0.454	79.47
0.457	79.53
0.46	79.67
0.463	79.63
0.466	79.67
0.469	79.6
0.472	79.84
0.475	79.85
0.478	79.8
0.481	79.86
0.484	79.79
0.487	79.9
0.49	79.91
0.493	79.96
0.496	79.84
0.499	80.07
0.502	79.99
0.505	79.99
0.508	80.17
0.511	80.09
0.514	80.21
0.517	80.17
0.52	80.07
0.523	80.18
0.526	80.1
0.529	80.24
0.532	80.19
0.535	80.15
0.538	80.16
0.541	80.1
0.544	80.22
0.547	80.24
0.55	80.29
0.553	80.22
0.556	80.47
0.559	80.34
0.562	80.66
0.565	80.66
0.568	80.65
0.571	80.46
0.574	80.31
0.577	80.23
0.58	80.19
0.583	80.22
0.586	80.27
0.589	80.22
0.592	80.26
0.595	80.31
0.598	80.35
0.601	80.4
0.604	80.35
0.607	80.42
0.61	80.49
0.613	80.35
0.616	80.35
0.619	80.25
0.622	80.28
0.625	80.27
0.628	80.37
0.631	80.19
0.634	80.28
0.637	80.3
0.64	80.24
0.643	80.3
0.646	80.23
0.649	80.32
0.652	80.31
0.655	80.24
0.658	80.27
0.661	80.27
0.664	80.2
0.667	80.2
0.67	80.29
0.673	80.15
0.676	80.19
0.679	80.26
0.682	80.25
0.685	80.33
0.688	80.23
0.691	80.22
0.694	80.34
0.697	80.25
0.7	80.13
0.703	80.14
0.706	80.3
0.709	80.1
0.712	80.16
0.715	80.21
0.718	80.12
0.721	80.16
0.724	80.21
0.727	80.12
0.73	80.28
0.733	80.39
0.736	80.2
0.739	80.23
0.742	80.35
0.745	80.24
0.748	80.2
0.751	80.25
0.754	80.12
0.757	80.09
0.76	80.16
0.763	80.14
0.766	80.05
0.769	80.22
0.772	80.14
0.775	80.17
0.778	80.21
0.781	80.16
0.784	80.19
0.787	80.3
0.79	80.34
0.793	80.23
0.796	80.42
0.799	80.33
0.808	80.2
0.82	80.25
0.832	80.4
0.844	80.4
0.856	80.42
0.868	80.4
0.88	80.44
0.892	80.35
0.904	80.34
0.916	80.28
0.928	80.29
0.94	80.33
0.952	80.4
0.964	80.35
0.976	80.27
0.988	80.23
1	80.28
1.012	80.37
1.024	80.24
1.036	80.15
1.048	80.12
1.06	80.12
1.072	80.25
1.084	80.24
1.096	80.23
1.108	80.2
1.12	80.22
1.132	80.21
1.144	80.14
1.156	80.11
1.168	80.08
1.18	80.16
1.192	80.16
1.204	80.16
1.216	80.05
1.228	79.96
1.24	79.99
1.252	80.06
1.264	80.12
1.276	80.06
1.288	80.1
1.3	79.91
1.312	80.01
1.324	80.03
1.336	80.06
1.348	79.97
1.36	79.95
1.372	79.85
1.384	79.87
1.396	79.93
1.408	79.95
1.42	80.04
1.432	80.02
1.444	79.95
1.456	79.95
1.468	80.05
1.48	80.1
1.492	80.07
1.504	80.05
1.516	80.11
1.528	80.05
1.54	79.97
1.552	80.03
1.564	80.05
1.576	80.08
1.588	80.06
1.6	80.02
1.612	80
1.624	80.07
1.636	80.09
1.648	80.12
1.66	80.12
1.672	80.14
1.684	80.14
1.696	80.36
1.708	80.32
1.72	80.2
1.732	80.1
1.744	80.13
1.756	80.2
1.768	80.14
1.78	80.02
1.792	80.08
1.804	80.2
1.816	80.13
1.828	80.14
1.84	80.08
1.852	79.96
1.864	79.95
1.876	79.91
1.888	79.91
1.9	79.94
1.912	80
1.924	79.87
1.936	79.94
1.948	79.91
1.96	79.95
1.972	79.98
1.984	80.14
1.996	80.33
2.008	80.33
2.02	80.56
2.032	80.53
2.044	80.53
2.056	80.44
2.068	80.53
2.08	80.78
2.092	80.79
2.104	80.86
2.116	80.93
2.128	80.92
2.14	80.78
2.152	80.65
2.164	80.51
2.176	80.36
2.188	80.3
2.2	80.31
2.212	80.23
2.224	80.39
2.236	80.34
2.248	80.26
2.26	80.29
2.272	80.35
2.284	80.46
2.296	80.57
2.308	80.69
2.32	80.81
2.332	80.92
2.344	80.86
2.356	80.8
2.368	80.7
2.38	80.81
2.392	80.87
2.404	80.87
2.416	80.98
2.428	80.89
2.44	80.82
2.452	80.71
2.464	80.72
2.476	80.83
2.488	81.23
2.5	81.41
