Name: Cassiterite SnO_2
Type: Mineral
Class: Oxides
Particle Size: 45-125um
Sample No.: O-3A
Owner: JPL
Wavelength Range: VNIR-SWIR
Origin: USA, South Dakota, Lawrence County, Tinton
Measurement: Hemispherical reflectance
X Units: Wavelength (micrometers)
Y Units: Reflectance (percent)
wavelength	value
0.4	4.94
0.403	4.93
0.406	4.92
0.409	4.86
0.412	4.93
0.415	4.92
0.418	4.86
0.421	4.86
0.424	4.86
0.427	4.85
0.43	4.86
0.433	4.78
0.436	4.91
0.439	4.86
0.442	4.74
0.445	4.78
0.448	4.84
0.451	4.79
0.454	4.84
0.457	4.8
0.46	4.8
0.463	4.79
0.466	4.72
0.469	4.78
0.472	4.73
0.475	4.78
0.478	4.84
0.481	4.81
0.484	4.7
0.487	4.68
0.49	4.72
0.493	4.69
0.496	4.73
0.499	4.84
0.502	4.89
0.505	4.65
0.508	4.65
0.511	4.69
0.514	4.71
0.517	4.76
0.52	4.76
0.523	4.82
0.526	4.84
0.529	4.72
0.532	4.89
0.535	4.72
0.538	4.78
0.541	4.66
0.544	4.76
0.547	4.79
0.55	4.66
0.553	4.65
0.556	4.72
0.559	4.75
0.562	4.82
0.565	4.86
0.568	4.75
0.571	4.76
0.574	4.7
0.577	4.65
0.58	4.73
0.583	4.74
0.586	4.74
0.589	4.85
0.592	4.8
0.595	4.68
0.598	4.82
0.601	4.8
0.604	4.87
0.607	4.92
0.61	4.87
0.613	4.86
0.616	4.85
0.619	4.85
0.622	4.86
0.625	4.96
0.628	4.96
0.631	4.97
0.634	4.98
0.637	4.96
0.64	4.92
0.643	4.96
0.646	5.04
0.649	5.14
0.652	5.09
0.655	5.08
0.658	5.39
0.661	5.73
0.664	5.65
0.667	5.54
0.67	5.21
0.673	5.15
0.676	5.2
0.679	5.14
0.682	5.26
0.685	5.14
0.688	5.19
0.691	5.25
0.694	5.26
0.697	5.27
0.7	5.18
0.703	5.21
0.706	5.3
0.709	5.31
0.712	5.37
0.715	5.38
0.718	5.42
0.721	5.37
0.724	5.37
0.727	5.35
0.73	5.42
0.733	5.41
0.736	5.37
0.739	5.47
0.742	5.47
0.745	5.36
0.748	5.4
0.751	5.52
0.754	5.41
0.757	5.47
0.76	5.46
0.763	5.53
0.766	5.52
0.769	5.39
0.772	5.47
0.775	5.46
0.778	5.51
0.781	5.46
0.784	5.51
0.787	5.57
0.79	5.57
0.793	5.57
0.796	5.62
0.799	5.88
0.808	5.73
0.82	5.75
0.832	5.79
0.844	5.75
0.856	5.7
0.868	5.82
0.88	5.65
0.892	5.71
0.904	5.77
0.916	5.75
0.928	5.76
0.94	5.82
0.952	5.89
0.964	5.89
0.976	6
0.988	5.97
1	6
1.012	6
1.024	6.06
1.036	5.98
1.048	5.92
1.06	5.86
1.072	5.95
1.084	5.9
1.096	5.82
1.108	5.82
1.12	5.76
1.132	5.71
1.144	5.68
1.156	5.67
1.168	5.65
1.18	5.59
1.192	5.56
1.204	5.5
1.216	5.56
1.228	5.46
1.24	5.52
1.252	5.44
1.264	5.44
1.276	5.48
1.288	5.48
1.3	5.4
1.312	5.42
1.324	5.4
1.336	5.34
1.348	5.33
1.36	5.28
1.372	5.29
1.384	5.32
1.396	5.17
1.408	5.24
1.42	5.18
1.432	5.14
1.444	5.17
1.456	5.16
1.468	5.13
1.48	5.08
1.492	5.12
1.504	5.06
1.516	5.08
1.528	4.95
1.54	4.99
1.552	4.94
1.564	4.95
1.576	4.94
1.588	4.93
1.6	4.95
1.612	4.85
1.624	4.9
1.636	4.94
1.648	4.81
1.66	4.93
1.672	4.86
1.684	4.83
1.696	4.86
1.708	4.86
1.72	4.89
1.732	4.87
1.744	4.85
1.756	4.88
1.768	4.81
1.78	4.86
1.792	4.87
1.804	4.91
1.816	4.85
1.828	4.8
1.84	4.93
1.852	4.78
1.864	4.89
1.876	4.93
1.888	4.87
1.9	4.92
1.912	4.88
1.924	4.82
1.936	4.89
1.948	4.88
1.96	4.89
1.972	4.89
1.984	4.86
1.996	4.98
2.008	4.92
2.02	4.96
2.032	5.06
2.044	4.95
2.056	4.94
2.068	5.04
2.08	4.95
2.092	4.98
2.104	4.93
2.116	5.03
2.128	4.97
2.14	5.04
2.152	4.97
2.164	4.94
2.176	5
2.188	4.92
2.2	4.95
2.212	4.94
2.224	4.97
2.236	4.99
2.248	4.94
2.26	5
2.272	4.98
2.284	4.93
2.296	4.92
2.308	4.91
2.32	4.96
2.332	5
2.344	4.98
2.356	4.99
2.368	4.97
2.38	4.99
2.392	4.97
2.404	4.87
2.416	4.97
2.428	4.91
2.44	4.97
2.452	4.96
2.464	4.89
2.476	4.9
2.488	4.94
2.5	4.9
