Name: Red-orange sandy loam
Type: Soils
Class: Entisol
Particle Size: see additional information
Sample No.: fgg036
Owner: University of NSW
Origin: Fowlers Gap, western New South Wales, Australia
Description: Parent material consists of aeolian silts/clays and sandstone/quartz pebble/ironstone gravel.
Measurement: Directional hemispherical reflectance
X Units: Wavelength (micrometers)
Y Units: Reflectance (percent)
wavelength	value
14.0131	1.90993
13.7895	2.24312
13.5729	2.40902
13.363	2.43229
13.1595	2.61781
12.9621	2.65136
12.7705	2.80773
12.5845	2.61016
12.4039	1.83517
12.2284	1.71196
12.0578	1.95058
11.8918	2.8473
11.7304	3.01594
11.5733	3.15428
11.4203	3.0824
11.2714	3.16534
11.1263	3.21839
10.9848	3.04449
10.8469	3.04101
10.7125	2.96504
10.5813	3.06426
10.4533	3.47721
10.3284	3.66401
10.2064	4.06745
10.0872	4.62311
9.9708	5.04103
9.8571	5.41591
9.7459	5.887
9.6372	6.74731
9.5309	7.50836
9.427	8.39087
9.3252	9.54696
9.2257	9.55687
9.1282	8.94563
9.0328	8.22267
8.9394	8.13402
8.8478	9.05222
8.7582	8.90042
8.6703	8.04292
8.5842	8.24756
8.4997	9.36283
8.4169	10.1187
8.3357	10.9633
8.2561	12.3997
8.178	12.7481
8.1013	9.90101
8.0261	6.82151
7.9522	5.07536
7.8797	3.5859
7.8085	2.73275
7.7386	2.64905
7.6699	2.27797
7.6024	2.13124
7.5361	2.10061
7.4709	2.05772
7.4069	2.17998
7.344	2.30629
7.2821	2.33456
7.2212	2.6773
7.1614	2.86514
7.1025	3.10007
7.0446	3.18854
6.9877	3.3486
6.9316	3.68265
6.8764	3.79471
6.8222	3.95131
6.7687	3.90268
6.7161	3.88291
6.6643	4.03695
6.6133	4.12608
6.5631	4.0224
6.5136	4.35679
6.4649	5.27905
6.4169	6.2454
6.3696	4.9206
6.323	4.19954
6.277	3.42031
6.2318	2.85638
6.1872	2.62609
6.1432	2.30293
6.0998	2.39272
6.0571	2.71557
6.0149	2.90278
5.9733	3.13522
5.9323	3.54084
5.8919	4.4589
5.852	5.47333
5.8126	6.72438
5.7738	7.79884
5.7354	8.57178
5.6976	8.93869
5.6603	7.87381
5.6235	6.58089
5.5871	6.23579
5.5512	6.39111
5.5158	7.01385
5.4808	7.90677
5.4463	8.35288
5.4121	7.2839
5.3785	5.61493
5.3452	5.20818
5.3123	5.53263
5.2799	6.00296
5.2478	7.22662
5.2161	9.07898
5.1848	9.60892
5.1539	9.53208
5.1234	9.505
5.0932	9.41219
5.0633	8.85883
5.0338	8.99477
5.0047	9.11956
4.9759	9.98001
4.9474	11.6752
4.9192	12.947
4.8914	16.5209
4.8638	19.5549
4.8366	21.1639
4.8097	22.2223
4.7831	22.958
4.7567	23.7583
4.7307	24.2187
4.7049	23.8951
4.6795	23.1159
4.6543	24.5446
4.6293	25.7715
4.6047	26.5569
4.5802	26.9797
4.5561	26.9935
4.5322	26.2594
4.5086	24.8208
4.4852	23.8459
4.462	23.8091
4.4391	24.6834
4.4164	25.6613
4.3939	26.7338
4.3717	28.0386
4.3497	28.9783
4.3279	29.5939
4.3063	29.2645
4.285	28.9861
4.2638	29.5984
4.2429	29.9003
4.2222	30.3505
4.2017	31.3891
4.1813	32.1529
4.1612	32.6652
4.1412	33.0921
4.1215	33.759
4.1019	34.2207
4.0826	34.8028
4.0634	35.1786
4.0443	35.48
4.0255	35.5469
4.0068	35.707
3.9883	35.8115
3.97	36.0676
3.9519	36.3605
3.9339	36.4718
3.916	36.5151
3.8984	36.3168
3.8809	35.9887
3.8635	35.6773
3.8463	35.4933
3.8293	35.2324
3.8124	35.0467
3.7956	34.8149
3.779	34.3067
3.7626	33.722
3.7463	33.1272
3.7301	32.5952
3.7141	32.298
3.6982	31.8592
3.6824	31.4961
3.6668	31.1512
3.6513	30.6532
3.6359	30.0009
3.6207	29.4594
3.6056	28.6359
3.5906	28.0077
3.5758	27.249
3.561	26.6461
3.5464	25.8964
3.5319	25.1496
3.5175	24.2655
3.5033	23.1494
3.4891	22.8349
3.4751	22.1767
3.4612	21.4282
3.4474	20.5764
3.4337	19.868
3.4201	18.6006
3.4066	18.0111
3.3932	17.5587
3.3799	17.0265
3.3668	16.3607
3.3537	15.805
3.3407	15.1886
3.3279	14.3979
3.3151	13.8867
3.3024	13.0878
3.2899	12.4603
3.2774	11.843
3.265	11.1982
3.2527	10.7729
3.2405	10.2291
3.2284	9.59314
3.2164	9.14904
3.2045	8.59164
3.1926	8.32611
3.1809	7.67023
3.1692	7.24899
3.1576	6.9054
3.1461	6.5502
3.1347	6.26729
3.1234	5.91578
3.1121	5.52985
3.101	5.43029
3.0899	5.16127
3.0789	4.90694
3.068	4.95895
3.0571	4.85891
3.0463	4.94061
3.0356	4.76122
3.025	4.61851
3.0144	4.45808
3.004	4.37465
2.9936	4.28002
2.9832	4.1316
2.973	4.19238
2.9628	3.98395
2.9526	3.86985
2.9426	3.95306
2.9326	3.84001
2.9227	3.77581
2.9128	3.94624
2.903	4.1039
2.8933	3.98192
2.8837	4.10163
2.8741	4.1968
2.8646	4.28966
2.8551	4.39812
2.8457	4.46612
2.8363	4.61786
2.8271	4.40571
2.8178	4.59643
2.8087	4.19618
2.7996	4.08215
2.7906	3.81394
2.7816	3.46165
2.7726	3.23665
2.7638	2.66073
2.755	2.93461
2.7462	3.14273
2.7375	3.321
2.7289	4.41802
2.7203	6.1548
2.7117	6.50038
2.7033	4.85164
2.6948	11.5327
2.6864	20.7768
2.6781	28.086
2.6698	32.8513
2.6616	33.6819
2.6535	35.6546
2.6453	36.7392
2.6373	37.604
2.6292	39.417
2.6213	40.2194
2.6133	39.8279
2.6054	41.8825
2.5976	40.8211
2.5898	41.0298
2.5821	41.5741
2.5744	42.0389
2.5668	41.5524
2.5592	41.8268
2.5516	42.3738
2.5441	42.24
2.5366	42.5523
2.5292	42.2915
2.5218	42.6306
2.5145	42.7631
2.5072	43.0436
2.4999	43.2242
2.4927	43.4678
2.4855	43.7398
2.4784	44.249
2.4713	44.6343
2.4643	44.9439
2.4573	45.1994
2.4503	45.4107
2.4434	45.7664
2.4365	46.2124
2.4296	46.8401
2.4228	47.5019
2.4161	47.9281
2.4093	48.3183
2.4026	48.4855
2.396	48.5847
2.3893	48.634
2.3827	48.6931
2.3762	49.0232
2.3697	49.6272
2.3632	49.755
2.3567	49.8694
2.3503	50.2165
2.344	50.6244
2.3376	51.1788
2.3313	51.5974
2.325	52.1349
2.3188	52.6333
2.3126	52.8681
2.3064	53.2059
2.3003	53.4871
2.2942	53.7396
2.2881	53.7677
2.2821	54.298
2.2761	54.1315
2.2701	54.3973
2.2641	54.1673
2.2582	53.9556
2.2523	53.5678
2.2465	53.3674
2.2406	53.2512
2.2348	53.2404
2.2291	52.9794
2.2233	52.638
2.2176	52.0025
2.212	50.3506
2.2063	49.9465
2.2007	51.7265
2.1951	52.3664
2.1895	53.0523
2.184	53.853
2.1785	54.1823
2.173	54.3474
2.1676	54.7865
2.1622	55.1731
2.1568	55.6985
2.1514	55.9769
2.146	56.6518
2.1407	56.9573
2.1354	57.1381
2.1302	57.224
2.1249	57.3142
2.1197	57.1668
2.1145	57.1698
2.1094	57.3426
2.1042	57.4471
2.0991	57.2669
2.094	57.1738
2.089	57.2005
2.0839	57.099
2.0789	57.2259
2.0739	57.2111
2.069	57.1651
2.064	57.0631
2.0591	56.9087
2.0542	56.8824
2.0493	56.8649
2.0445	56.6664
2.0397	56.4144
2.0349	56.1398
2.0301	56.1253
2.0253	55.8926
2.0206	55.863
2.0159	55.5696
2.0112	55.2606
2.0065	54.9668
2.0019	54.6413
