Name: Prehnite Ca_2Al_2Si_3O_10(OH)_2
Type: Mineral
Class: Silicates
Subclass: Phyllosilicates
Particle Size: 45-125um
Sample No.: PS-21A
Owner: JPL
Wavelength Range: VNIR-SWIR
Origin: USA, Virginia, Centerville
Measurement: Hemispherical reflectance
X Units: Wavelength (micrometers)
Y Units: Reflectance (percent)
wavelength	value
0.4	74.38
0.403	74.66
0.406	74.91
0.409	74.65
0.412	74.56
0.415	74.23
0.418	73.75
0.421	73.38
0.424	72.95
0.427	72.9
0.43	73.56
0.433	74.53
0.436	75.98
0.439	76.77
0.442	77.54
0.445	78.4
0.448	78.86
0.451	79.48
0.454	79.72
0.457	80.01
0.46	80.24
0.463	80.53
0.466	80.57
0.469	80.92
0.472	81.15
0.475	81.32
0.478	81.51
0.481	81.5
0.484	81.68
0.487	81.84
0.49	81.83
0.493	81.93
0.496	81.98
0.499	82.14
0.502	82.33
0.505	82.24
0.508	82.23
0.511	82.38
0.514	82.42
0.517	82.59
0.52	82.62
0.523	82.54
0.526	82.48
0.529	82.53
0.532	82.65
0.535	82.55
0.538	82.43
0.541	82.45
0.544	82.38
0.547	82.44
0.55	82.38
0.553	82.27
0.556	82.29
0.559	82.27
0.562	82.39
0.565	82.33
0.568	82.18
0.571	82.09
0.574	81.99
0.577	81.76
0.58	81.69
0.583	81.71
0.586	81.69
0.589	81.66
0.592	81.57
0.595	81.51
0.598	81.53
0.601	81.75
0.604	81.86
0.607	81.63
0.61	81.77
0.613	81.55
0.616	81.77
0.619	81.66
0.622	81.74
0.625	81.67
0.628	81.81
0.631	81.76
0.634	81.84
0.637	81.83
0.64	81.81
0.643	82.06
0.646	82.01
0.649	81.94
0.652	82.05
0.655	82.05
0.658	82.17
0.661	82.3
0.664	82.18
0.667	82.33
0.67	82.32
0.673	82.37
0.676	82.51
0.679	82.34
0.682	82.47
0.685	82.65
0.688	82.74
0.691	82.69
0.694	82.58
0.697	82.69
0.7	82.85
0.703	82.78
0.706	83.01
0.709	82.93
0.712	83.1
0.715	82.91
0.718	83.13
0.721	83.1
0.724	83.11
0.727	83.15
0.73	83.06
0.733	83.07
0.736	83.14
0.739	83.13
0.742	83.13
0.745	83.05
0.748	83.21
0.751	83
0.754	83.16
0.757	83.01
0.76	82.96
0.763	82.93
0.766	83.02
0.769	82.96
0.772	82.82
0.775	82.71
0.778	82.78
0.781	82.84
0.784	82.81
0.787	82.79
0.79	82.72
0.793	82.7
0.796	82.79
0.799	82.85
0.808	82.59
0.82	82.32
0.832	82.04
0.844	81.94
0.856	81.89
0.868	81.87
0.88	81.69
0.892	81.58
0.904	81.41
0.916	81.16
0.928	81.22
0.94	81.16
0.952	81.29
0.964	81.22
0.976	81.07
0.988	81.07
1	80.7
1.012	80.7
1.024	81.47
1.036	81.91
1.048	81.97
1.06	82.09
1.072	82.27
1.084	82.44
1.096	82.65
1.108	82.74
1.12	82.87
1.132	82.91
1.144	82.94
1.156	82.85
1.168	82.92
1.18	83.04
1.192	83.22
1.204	83.21
1.216	83.27
1.228	83.23
1.24	83.33
1.252	83.3
1.264	82.84
1.276	81.05
1.288	81.49
1.3	81.35
1.312	82.38
1.324	82.56
1.336	83.03
1.348	83.09
1.36	83.06
1.372	82.87
1.384	82.5
1.396	81.63
1.408	80.78
1.42	78.72
1.432	76.18
1.444	74.53
1.456	69.26
1.468	49.96
1.48	59.7
1.492	69.97
1.504	77.28
1.516	80.24
1.528	81.27
1.54	81.75
1.552	81.9
1.564	82.32
1.576	82.38
1.588	82.4
1.6	82.44
1.612	82.33
1.624	82.49
1.636	82.69
1.648	82.66
1.66	82.69
1.672	82.42
1.684	82.1
1.696	81.85
1.708	81.56
1.72	81
1.732	80.59
1.744	80.44
1.756	80.63
1.768	80.76
1.78	80.91
1.792	80.74
1.804	80.04
1.816	78.63
1.828	77.69
1.84	77.23
1.852	76.65
1.864	74.7
1.876	73.13
1.888	72.81
1.9	72.14
1.912	72.34
1.924	72.36
1.936	72.79
1.948	73.64
1.96	74.19
1.972	74.75
1.984	74.97
1.996	74.7
2.008	74.58
2.02	74.81
2.032	75.19
2.044	75.43
2.056	75.32
2.068	75.16
2.08	74.82
2.092	74.21
2.104	73.67
2.116	73.22
2.128	72.62
2.14	71.78
2.152	70.83
2.164	69.63
2.176	68.08
2.188	65.55
2.2	60.03
2.212	52.14
2.224	46.65
2.236	47.07
2.248	49.75
2.26	48.87
2.272	46.29
2.284	46.1
2.296	45.53
2.308	38.44
2.32	29.49
2.332	24.72
2.344	22.32
2.356	21.43
2.368	23.01
2.38	24.6
2.392	26.79
2.404	30.05
2.416	34.37
2.428	38.14
2.44	39.99
2.452	39.64
2.464	38.28
2.476	37.39
2.488	36.63
2.5	35.54
