Name: White kaolinitic sandstone
Type: Rocks
Class: Sedimentary
Subclass: Arenaceous
Particle Size: see additional information
Sample No.: fge1
Owner: University of NSW
Origin: Nundooka Sandstone, Fowlers Gap, western New South Wales, Australia
Description: Fine to medium grained sandstone with kaolinitic matrix
Measurement: Directional hemispherical reflectance
X Units: Wavelength (micrometers)
Y Units: Reflectance (percent)
wavelength	value
14.983	3.3243
14.728	3.1746
14.481	2.6394
14.242	1.9621
14.011	2.734
13.788	2.9443
13.571	3.2227
13.361	3.3032
13.158	3.7405
12.96	5.0229
12.769	6.4521
12.583	4.918
12.402	3.7185
12.227	1.4841
12.056	2.16
11.89	2.6266
11.729	2.8795
11.572	3.1512
11.419	3.2968
11.27	3.6317
11.125	3.8766
10.983	4.3558
10.846	4.2139
10.711	4.129
10.58	4.2661
10.452	4.5209
10.327	5.1212
10.205	5.7186
10.086	6.5804
9.97	8.1226
9.856	8.7966
9.745	9.8667
9.636	12.035
9.53	13.459
9.426	16.871
9.324	23.262
9.225	24.199
9.127	22.983
9.032	20.699
8.938	20.125
8.847	20.716
8.757	19.727
8.669	17.648
8.583	18.051
8.499	20.897
8.416	21.883
8.335	23.43
8.255	25.141
8.177	24.809
8.1	18.789
8.025	12.813
7.951	8.4705
7.879	5.2324
7.808	3.6399
7.737	2.9105
7.669	2.3167
7.601	1.863
7.535	1.7385
7.47	1.6142
7.406	1.603
7.343	1.5027
7.281	1.4825
7.22	1.4897
7.16	1.355
7.102	1.3503
7.044	1.2796
6.987	1.2487
6.931	1.2247
6.875	1.2195
6.821	1.214
6.768	1.2291
6.715	1.2695
6.663	1.2828
6.612	1.3613
6.562	1.3663
6.513	1.5152
6.464	1.8334
6.416	1.9616
6.369	1.689
6.322	1.5314
6.276	1.4098
6.231	1.3215
6.186	1.3098
6.142	1.3695
6.099	1.4961
6.056	1.6157
6.014	1.58
5.973	1.623
5.931	1.5678
5.891	1.8098
5.851	2.1903
5.812	2.5483
5.773	2.8761
5.735	3.186
5.697	3.2992
5.66	2.7989
5.623	2.2651
5.586	2.1296
5.551	2.1614
5.515	2.4291
5.48	2.7408
5.446	2.9248
5.411	2.5292
5.378	2.0861
5.345	1.9878
5.312	2.0223
5.279	2.1426
5.247	2.4238
5.215	2.9494
5.184	3.2013
5.153	3.174
5.123	3.121
5.093	3.0221
5.063	2.9315
5.033	2.924
5.004	2.9544
4.975	3.2484
4.947	3.9897
4.919	4.6971
4.891	7.2304
4.863	10.361
4.836	12.603
4.809	14.285
4.782	15.694
4.756	16.783
4.73	17.366
4.704	16.644
4.679	15.014
4.654	17.284
4.629	19.747
4.604	21.254
4.58	21.846
4.556	21.471
4.532	19.363
4.508	16.138
4.485	14.302
4.461	14.048
4.439	15.353
4.416	16.609
4.393	18.329
4.371	20.545
4.349	22.43
4.327	23.369
4.306	23.193
4.284	23.087
4.263	23.746
4.242	24.357
4.222	24.522
4.201	24.638
4.181	25.182
4.161	25.892
4.141	26.53
4.121	27.222
4.101	27.963
4.082	28.502
4.063	28.6
4.044	27.877
4.025	26.332
4.006	24.075
3.988	21.491
3.97	21.485
3.951	23.46
3.933	26.046
3.916	26.687
3.898	26.701
3.88	26.498
3.863	26.278
3.846	26.276
3.829	26.861
3.812	27.537
3.795	27.892
3.779	27.717
3.762	27.182
3.746	26.556
3.73	26.361
3.714	26.246
3.698	26.158
3.682	26.289
3.666	26.364
3.651	26.198
3.636	25.867
3.62	25.446
3.605	24.99
3.59	24.488
3.575	23.952
3.561	23.396
3.546	22.691
3.531	21.742
3.517	20.129
3.503	18.51
3.489	18.064
3.475	17.546
3.461	17.807
3.447	17.287
3.433	16.556
3.42	15.556
3.406	15.431
3.393	15.588
3.38	15.393
3.366	15.528
3.353	15.507
3.34	15.713
3.327	15.719
3.315	15.363
3.302	14.946
3.289	14.474
3.277	13.979
3.265	13.467
3.252	13.095
3.24	12.619
3.228	12.217
3.216	11.771
3.204	11.401
3.192	10.932
3.18	10.552
3.169	10.106
3.157	9.7559
3.146	9.3047
3.134	8.9399
3.123	8.5992
3.112	8.3154
3.101	8.1258
3.09	7.8397
3.079	7.7345
3.067	7.5387
3.057	7.3955
3.046	7.2805
3.035	7.1026
3.025	6.9438
3.014	6.885
3.004	6.7141
2.993	6.6345
2.983	6.5171
2.973	6.3465
2.962	6.1012
2.952	6.165
2.942	6.1666
2.932	6.1717
2.922	6.2315
2.912	6.3054
2.903	6.3205
2.893	6.4595
2.883	6.5771
2.874	6.6135
2.864	6.6777
2.855	6.8182
2.845	6.9105
2.836	7.0391
2.827	6.9663
2.817	6.8436
2.808	6.6248
2.799	6.1716
2.79	5.6228
2.781	5.0075
2.772	4.5303
2.763	2.9248
2.755	3.8631
2.746	4.1227
2.737	3.6283
2.728	4.2783
2.72	5.0979
2.711	4.7494
2.703	4.333
2.695	9.1712
2.686	15.576
2.678	20.815
2.67	24.586
2.661	27.606
2.653	29.785
2.645	31.266
2.637	32.636
2.629	33.719
2.621	34.552
2.613	34.954
2.605	35.434
2.597	35.725
2.59	35.989
2.582	36.216
2.574	36.304
2.566	36.654
2.559	36.856
2.551	36.908
2.544	36.902
2.536	37.182
2.529	37.253
2.522	37.605
2.514	37.77
2.507	37.993
2.5	38.293
2.492	38.329
2.485	38.694
2.478	39.386
2.471	39.82
2.464	40.022
2.457	40.302
2.45	40.67
2.443	41.12
2.436	42.082
2.429	43.101
2.422	43.851
2.416	44.403
2.409	44.944
2.402	45.103
2.396	44.664
2.389	44.262
2.382	43.973
2.376	44.631
2.369	45.372
2.363	45.226
2.356	45.003
2.35	45.453
2.344	46.08
2.337	46.578
2.331	46.732
2.325	46.875
2.318	47.239
2.312	47.534
2.306	48.509
2.3	49.11
2.294	49.662
2.288	50.072
2.282	50.563
2.276	51.174
2.27	51.442
2.264	51.547
2.258	51.556
2.252	51.61
2.246	51.38
2.24	51.038
2.235	50.953
2.229	50.569
2.223	49.508
2.217	47.537
2.212	41.106
2.206	41.262
2.2	45.695
2.195	46.62
2.189	47.731
2.184	48.82
2.178	49.136
2.173	49.009
2.167	48.601
2.162	48.388
2.156	49.258
2.151	50.722
2.146	52.993
2.14	54.329
2.135	55.386
2.13	55.677
2.125	55.973
2.119	56.248
2.114	55.937
2.109	56.397
2.104	56.984
2.099	56.976
2.094	57.176
2.089	57.179
2.084	57.47
