Name: Cassiterite SnO_2
Type: Mineral
Class: Oxides
Particle Size: 0-45um
Sample No.: O-3A
Owner: JPL
Origin: USA, South Dakota, Lawrence County, Tinton.
Measurement: Hemispherical reflectance
X Units: Wavelength (micrometers)
Y Units: Reflectance (percent)
wavelength	value
2.5	5.7307
2.494	5.82868
2.488	5.92939
2.482	5.85744
2.476	5.89006
2.47	5.95807
2.464	5.85367
2.458	5.92792
2.452	5.98188
2.446	5.96751
2.44	6.05236
2.434	6.05276
2.428	6.05895
2.422	6.16888
2.416	6.18412
2.41	6.16139
2.404	6.205
2.398	6.18365
2.392	6.17706
2.386	6.31554
2.38	6.27469
2.374	6.25873
2.368	6.34692
2.362	6.31789
2.356	6.44236
2.35	6.49567
2.344	6.41461
2.338	6.45592
2.332	6.46848
2.326	6.4471
2.32	6.54956
2.314	6.53845
2.308	6.56347
2.302	6.58774
2.296	6.61368
2.29	6.61245
2.284	6.63789
2.278	6.61513
2.272	6.66164
2.266	6.69785
2.26	6.80669
2.254	6.83894
2.248	6.73314
2.242	6.81738
2.236	6.89413
2.23	6.86627
2.224	6.92649
2.218	6.95801
2.212	7.08483
2.206	6.98193
2.2	7.07628
2.194	7.07302
2.188	7.11461
2.182	7.12777
2.176	7.19069
2.17	7.27823
2.164	7.30771
2.158	7.38658
2.152	7.40643
2.146	7.38712
2.14	7.55585
2.134	7.46887
2.128	7.53931
2.122	7.55154
2.116	7.54447
2.11	7.6343
2.104	7.5625
2.098	7.57699
2.092	7.60196
2.086	7.68588
2.08	7.69787
2.074	7.80367
2.068	7.81578
2.062	7.76206
2.056	7.86738
2.05	7.91248
2.044	8.00118
2.038	8.01718
2.032	8.03582
2.026	8.0281
2.02	8.1164
2.014	8.1488
2.008	8.21179
2.002	8.12128
1.996	8.27786
1.99	8.30359
1.984	8.35915
1.978	8.37795
1.972	8.41329
1.966	8.37528
1.96	8.45827
1.954	8.40824
1.948	8.51193
1.942	8.65421
1.936	8.57232
1.93	8.61655
1.924	8.59505
1.918	8.80107
1.912	8.73683
1.906	8.78254
1.9	8.84194
1.894	8.8288
1.888	8.98674
1.882	8.92076
1.876	9.08525
1.87	8.97126
1.864	9.04889
1.858	9.08155
1.852	9.20331
1.846	9.19457
1.84	9.2169
1.834	9.30541
1.828	9.25834
1.822	9.33355
1.816	9.36978
1.81	9.42999
1.804	9.44302
1.798	9.47619
1.792	9.55452
1.786	9.50956
1.78	9.51583
1.774	9.58647
1.768	9.6284
1.762	9.66685
1.756	9.7031
1.75	9.74642
1.744	9.77892
1.738	9.85071
1.732	9.89949
1.726	9.87211
1.72	9.97084
1.714	10.0043
1.708	10.0012
1.702	10.0976
1.696	10.1015
1.69	10.1873
1.684	10.136
1.678	10.2105
1.672	10.2557
1.666	10.3507
1.66	10.3588
1.654	10.3646
1.648	10.4353
1.642	10.4411
1.636	10.5051
1.63	10.5296
1.624	10.5484
1.618	10.6028
1.612	10.7071
1.606	10.768
1.6	10.8485
1.594	10.8118
1.588	10.8944
1.582	10.9554
1.576	10.9874
1.57	10.9854
1.564	11.014
1.558	11.1128
1.552	11.1672
1.546	11.2659
1.54	11.2263
1.534	11.2818
1.528	11.4173
1.522	11.4132
1.516	11.3952
1.51	11.5318
1.504	11.5179
1.498	11.6474
1.492	11.6139
1.486	11.6737
1.48	11.7488
1.474	11.8101
1.468	11.8368
1.462	11.8265
1.456	11.9489
1.45	11.9955
1.444	12.0486
1.438	12.0623
1.432	12.1861
1.426	12.2058
1.42	12.2436
1.414	12.2402
1.408	12.3416
1.402	12.4048
1.396	12.444
1.39	12.4707
1.384	12.4478
1.378	12.5726
1.372	12.5874
1.366	12.6384
1.36	12.6186
1.354	12.6917
1.348	12.8034
1.342	12.7766
1.336	12.8013
1.33	12.8661
1.324	12.8347
1.318	12.8504
1.312	12.9007
1.306	12.9375
1.3	12.9128
1.294	13.0153
1.288	13.0072
1.282	12.9928
1.276	13.0156
1.27	13.0559
1.264	13.1023
1.258	13.0534
1.252	13.1379
1.246	13.1186
1.24	13.1705
1.234	13.1959
1.228	13.2456
1.222	13.2006
1.216	13.2188
1.21	13.2728
1.204	13.3322
1.198	13.4009
1.192	13.3574
1.186	13.4283
1.18	13.4271
1.174	13.4612
1.168	13.4797
1.162	13.5401
1.156	13.4822
1.15	13.5599
1.144	13.5909
1.138	13.6585
1.132	13.6487
1.126	13.68
1.12	13.7058
1.114	13.7062
1.108	13.792
1.102	13.7258
1.096	13.8098
1.09	13.7899
1.084	13.7776
1.078	13.956
1.072	13.8522
1.066	13.8928
1.06	13.8771
1.054	13.9362
1.048	14.0243
1.042	13.9868
1.036	13.9309
1.03	13.9991
1.024	14.0333
1.018	14.0132
1.012	13.9484
1.006	13.9542
1	13.9807
0.994	13.8911
0.988	13.8776
0.982	13.7795
0.976	13.7404
0.97	13.7041
0.964	13.7063
0.958	13.6314
0.952	13.5491
0.946	13.4608
0.94	13.3541
0.934	13.26
0.928	13.1686
0.922	13.0711
0.916	13.0255
0.91	12.977
0.904	12.9028
0.898	12.9492
0.892	12.7967
0.886	12.802
0.88	12.6942
0.874	12.7358
0.868	12.6605
0.862	12.6735
0.856	12.8408
0.85	12.8428
0.844	12.8449
0.838	12.8437
0.832	12.8601
0.826	12.8656
0.82	12.8551
0.814	12.8585
0.808	12.8525
0.802	12.8528
0.796	12.8233
0.79	12.8124
0.784	12.7759
0.778	12.7346
0.772	12.6821
0.766	12.6375
0.76	12.5715
0.754	12.5034
0.748	12.4282
0.742	12.3541
0.736	12.2618
0.73	12.1643
0.724	12.071
0.718	11.9629
0.712	11.8534
0.706	11.7392
0.7	11.6128
0.694	11.4867
0.688	11.3626
0.682	11.2335
0.676	11.091
0.67	10.9466
0.664	10.8015
0.658	10.6498
0.652	10.491
0.646	10.3314
0.64	10.1676
0.634	9.99639
0.628	9.81864
0.622	9.64218
0.616	9.45797
0.61	9.27364
0.604	9.08866
0.598	8.90797
0.592	8.73517
0.586	8.57334
0.58	8.40233
0.574	8.23504
0.568	8.07243
0.562	7.91952
0.556	7.76811
0.55	7.62538
0.544	7.48924
0.538	7.36248
0.532	7.23811
0.526	7.12232
0.52	7.01223
0.514	6.90632
0.508	6.80214
0.502	6.70861
0.496	6.61474
0.49	6.52597
0.484	6.43237
0.478	6.34675
0.472	6.27018
0.466	6.19669
0.46	6.12492
0.454	6.04913
0.448	5.98958
0.442	5.92546
0.436	5.87345
0.43	5.82951
0.424	5.78819
0.418	5.76644
0.412	5.74218
0.406	5.7245
0.4	5.72348
