Name: Lepidolite K(Li,Al)3(Si,Al)_4O_10(F,OH)_2
Type: Mineral
Class: Silicates
Subclass: Phyllosilicates
Particle Size: 0-45um
Sample No.: PS-13A
Owner: JPL
Origin: USA, South Dakota.
Description: Yellow lepidolite.
Measurement: Hemispherical reflectance
X Units: Wavelength (micrometers)
Y Units: Reflectance (percent)
wavelength	value
2.5	55.5129
2.494	54.5322
2.488	54.1241
2.482	53.8242
2.476	53.4254
2.47	53.0729
2.464	52.4609
2.458	51.966
2.452	51.3517
2.446	50.9665
2.44	50.7012
2.434	50.8801
2.428	51.4499
2.422	52.3771
2.416	53.6413
2.41	55.0599
2.404	56.1986
2.398	57.117
2.392	57.6369
2.386	57.8791
2.38	57.9767
2.374	57.9292
2.368	57.9129
2.362	57.4563
2.356	56.7456
2.35	56.1888
2.344	56.2315
2.338	56.9785
2.332	58.4207
2.326	60.1409
2.32	61.9288
2.314	63.7977
2.308	65.4973
2.302	67.0551
2.296	68.3368
2.29	69.3686
2.284	70.1436
2.278	70.433
2.272	70.6181
2.266	70.698
2.26	70.6254
2.254	70.499
2.248	70.1792
2.242	69.7877
2.236	69.273
2.23	68.056
2.224	65.9776
2.218	62.6141
2.212	58.1626
2.206	53.4082
2.2	50.0633
2.194	49.2679
2.188	51.5669
2.182	56.4201
2.176	61.9867
2.17	66.4004
2.164	69.6587
2.158	71.6862
2.152	73.1864
2.146	74.1277
2.14	74.6608
2.134	74.8781
2.128	74.6586
2.122	74.387
2.116	74.3889
2.11	74.53
2.104	74.9508
2.098	75.4953
2.092	76.1763
2.086	76.8767
2.08	77.4026
2.074	77.7772
2.068	77.9357
2.062	78.1206
2.056	78.2772
2.05	78.4566
2.044	78.5419
2.038	78.6656
2.032	78.6419
2.026	78.7402
2.02	78.7814
2.014	78.8117
2.008	78.782
2.002	78.7471
1.996	78.7114
1.99	78.7198
1.984	78.4855
1.978	78.4864
1.972	78.5361
1.966	78.5202
1.96	78.4626
1.954	78.4308
1.948	78.4137
1.942	78.4701
1.936	78.4676
1.93	78.2653
1.924	78.3668
1.918	78.4056
1.912	78.4911
1.906	78.866
1.9	79.3324
1.894	79.8257
1.888	80.2371
1.882	80.4478
1.876	80.7101
1.87	80.9176
1.864	81.0592
1.858	81.0279
1.852	80.9919
1.846	80.8193
1.84	80.7741
1.834	80.8667
1.828	80.9845
1.822	81.136
1.816	81.2225
1.81	81.3257
1.804	81.3977
1.798	81.3938
1.792	81.4313
1.786	81.3636
1.78	81.3248
1.774	81.3266
1.768	81.3275
1.762	81.3111
1.756	81.3879
1.75	81.3893
1.744	81.4493
1.738	81.5492
1.732	81.5335
1.726	81.5219
1.72	81.5933
1.714	81.5363
1.708	81.4739
1.702	81.4962
1.696	81.4587
1.69	81.5241
1.684	81.4525
1.678	81.5365
1.672	81.4514
1.666	81.5059
1.66	81.539
1.654	81.468
1.648	81.3862
1.642	81.4672
1.636	81.4424
1.63	81.4298
1.624	81.3505
1.618	81.3157
1.612	81.3677
1.606	81.3933
1.6	81.377
1.594	81.4027
1.588	81.3282
1.582	81.2389
1.576	81.2444
1.57	81.2166
1.564	81.1547
1.558	81.1023
1.552	81.0041
1.546	80.9268
1.54	80.9444
1.534	80.8376
1.528	80.7773
1.522	80.7376
1.516	80.6855
1.51	80.5903
1.504	80.4858
1.498	80.4472
1.492	80.3451
1.486	80.2711
1.48	80.1863
1.474	80.095
1.468	79.9832
1.462	79.8456
1.456	79.7127
1.45	79.5031
1.444	79.2005
1.438	78.7511
1.432	77.7136
1.426	74.678
1.42	68.3673
1.414	60.7196
1.408	61.0685
1.402	64.2051
1.396	70.4741
1.39	76.514
1.384	78.0096
1.378	78.1708
1.372	78.2999
1.366	78.4704
1.36	78.5718
1.354	78.5989
1.348	78.4532
1.342	78.3076
1.336	78.1373
1.33	77.9363
1.324	77.8201
1.318	77.7049
1.312	77.6374
1.306	77.6856
1.3	77.562
1.294	77.5752
1.288	77.6164
1.282	77.5223
1.276	77.5053
1.27	77.4821
1.264	77.3106
1.258	77.182
1.252	77.0573
1.246	76.9588
1.24	76.9483
1.234	76.9688
1.228	76.8541
1.222	76.8665
1.216	76.7631
1.21	76.7179
1.204	76.7002
1.198	76.5822
1.192	76.6039
1.186	76.6379
1.18	76.499
1.174	76.5638
1.168	76.5988
1.162	76.6309
1.156	76.5057
1.15	76.6235
1.144	76.6907
1.138	76.7473
1.132	76.6665
1.126	76.7741
1.12	76.7634
1.114	76.9606
1.108	76.8865
1.102	76.931
1.096	77.0374
1.09	76.9614
1.084	77.0882
1.078	77.1045
1.072	77.1984
1.066	77.1732
1.06	77.176
1.054	77.1718
1.048	77.3233
1.042	77.3167
1.036	77.2248
1.03	77.3262
1.024	77.2353
1.018	77.2071
1.012	77.1635
1.006	77.1413
1	77.0402
0.994	76.9212
0.988	76.8449
0.982	76.745
0.976	76.533
0.97	76.0687
0.964	75.7324
0.958	75.7833
0.952	76.0983
0.946	76.0918
0.94	76.0814
0.934	76.0446
0.928	76.0288
0.922	75.9663
0.916	75.9092
0.91	75.951
0.904	75.9682
0.898	75.9887
0.892	76.0523
0.886	76.1061
0.88	76.1855
0.874	76.2323
0.868	76.4519
0.862	76.4053
0.856	76.8669
0.85	77.0256
0.844	77.1792
0.838	77.2982
0.832	77.432
0.826	77.581
0.82	77.6826
0.814	77.8353
0.808	77.9951
0.802	78.0878
0.796	78.0993
0.79	78.1751
0.784	78.2333
0.778	78.3088
0.772	78.3011
0.766	78.3429
0.76	78.365
0.754	78.3217
0.748	78.3148
0.742	78.3629
0.736	78.3427
0.73	78.3523
0.724	78.3577
0.718	78.3368
0.712	78.3007
0.706	78.2501
0.7	78.2227
0.694	78.1746
0.688	78.1614
0.682	78.097
0.676	78.0623
0.67	78.0089
0.664	77.9287
0.658	77.8994
0.652	77.8013
0.646	77.7502
0.64	77.6693
0.634	77.5755
0.628	77.5011
0.622	77.4209
0.616	77.3083
0.61	77.2183
0.604	77.1042
0.598	77.0304
0.592	76.9773
0.586	76.8552
0.58	76.7349
0.574	76.5853
0.568	76.4158
0.562	76.2337
0.556	75.9947
0.55	75.7665
0.544	75.4646
0.538	75.1579
0.532	74.8
0.526	74.4013
0.52	73.9627
0.514	73.4646
0.508	72.9071
0.502	72.317
0.496	71.6532
0.49	70.9611
0.484	70.1824
0.478	69.4237
0.472	68.5953
0.466	67.6732
0.46	66.6191
0.454	65.3973
0.448	63.9215
0.442	62.1983
0.436	60.4072
0.43	58.4286
0.424	56.3814
0.418	54.283
0.412	52.0721
0.406	49.7864
0.4	47.3956
