Name: Chalcocite Cu_2S
Type: Mineral
Class: Sulfides
Particle Size: 45-125um
Sample No.: S-8A
Owner: JPL
Origin: USA, Alaska, Kennecott.
Measurement: Hemispherical reflectance
X Units: Wavelength (micrometers)
Y Units: Reflectance (percent)
wavelength	value
2.5	6.90459
2.494	6.39083
2.488	6.48915
2.482	6.59796
2.476	6.57339
2.47	6.62012
2.464	6.51858
2.458	6.58889
2.452	6.59278
2.446	6.53869
2.44	6.5418
2.434	6.55762
2.428	6.54306
2.422	6.63345
2.416	6.6129
2.41	6.6438
2.404	6.65381
2.398	6.63664
2.392	6.59031
2.386	6.56149
2.38	6.64502
2.374	6.64714
2.368	6.60351
2.362	6.62387
2.356	6.68566
2.35	6.64108
2.344	6.61659
2.338	6.67809
2.332	6.65469
2.326	6.6268
2.32	6.65987
2.314	6.62519
2.308	6.59511
2.302	6.61456
2.296	6.66802
2.29	6.62285
2.284	6.69707
2.278	6.61183
2.272	6.61121
2.266	6.65334
2.26	6.63149
2.254	6.64811
2.248	6.57522
2.242	6.61607
2.236	6.60726
2.23	6.67087
2.224	6.74537
2.218	6.57274
2.212	6.72395
2.206	6.63504
2.2	6.66491
2.194	6.66904
2.188	6.67296
2.182	6.62488
2.176	6.66708
2.17	6.64794
2.164	6.64504
2.158	6.67031
2.152	6.67426
2.146	6.62004
2.14	6.68842
2.134	6.65923
2.128	6.65048
2.122	6.60409
2.116	6.58222
2.11	6.56028
2.104	6.53474
2.098	6.51207
2.092	6.50266
2.086	6.50675
2.08	6.52171
2.074	6.52795
2.068	6.52605
2.062	6.49507
2.056	6.54453
2.05	6.45334
2.044	6.57952
2.038	6.50064
2.032	6.51583
2.026	6.46332
2.02	6.50708
2.014	6.47051
2.008	6.49022
2.002	6.42856
1.996	6.48894
1.99	6.44278
1.984	6.45508
1.978	6.34963
1.972	6.41728
1.966	6.35419
1.96	6.42249
1.954	6.33741
1.948	6.36803
1.942	6.36296
1.936	6.34141
1.93	6.42507
1.924	6.36533
1.918	6.36099
1.912	6.35816
1.906	6.38962
1.9	6.36319
1.894	6.40153
1.888	6.37832
1.882	6.43564
1.876	6.43968
1.87	6.42033
1.864	6.44021
1.858	6.46287
1.852	6.43431
1.846	6.42651
1.84	6.44537
1.834	6.49834
1.828	6.43461
1.822	6.37279
1.816	6.48668
1.81	6.37479
1.804	6.48746
1.798	6.52809
1.792	6.42815
1.786	6.5028
1.78	6.45917
1.774	6.43006
1.768	6.47095
1.762	6.47782
1.756	6.45735
1.75	6.47917
1.744	6.51675
1.738	6.52053
1.732	6.53074
1.726	6.54498
1.72	6.56334
1.714	6.54355
1.708	6.48691
1.702	6.53126
1.696	6.56421
1.69	6.51764
1.684	6.51774
1.678	6.52198
1.672	6.53712
1.666	6.54955
1.66	6.62202
1.654	6.57758
1.648	6.52623
1.642	6.71858
1.636	6.61637
1.63	6.61319
1.624	6.53154
1.618	6.54529
1.612	6.5822
1.606	6.60143
1.6	6.64161
1.594	6.64331
1.588	6.60076
1.582	6.56783
1.576	6.69665
1.57	6.60345
1.564	6.65315
1.558	6.62457
1.552	6.58609
1.546	6.57766
1.54	6.60534
1.534	6.69243
1.528	6.63558
1.522	6.63037
1.516	6.65623
1.51	6.72356
1.504	6.71057
1.498	6.70443
1.492	6.66702
1.486	6.67487
1.48	6.6637
1.474	6.69994
1.468	6.68668
1.462	6.71041
1.456	6.74175
1.45	6.7327
1.444	6.69313
1.438	6.70218
1.432	6.77947
1.426	6.78378
1.42	6.72085
1.414	6.69237
1.408	6.76105
1.402	6.78109
1.396	6.79072
1.39	6.84097
1.384	6.81277
1.378	6.94775
1.372	6.811
1.366	6.91916
1.36	6.92151
1.354	6.93974
1.348	6.82732
1.342	6.84702
1.336	6.96695
1.33	6.89863
1.324	6.90564
1.318	6.94111
1.312	7.0048
1.306	6.89667
1.3	7.00069
1.294	7.02573
1.288	7.03819
1.282	7.06183
1.276	7.13276
1.27	7.0491
1.264	7.03378
1.258	7.14454
1.252	7.08731
1.246	7.06908
1.24	7.19801
1.234	7.15853
1.228	7.20794
1.222	7.23532
1.216	7.23033
1.21	7.25094
1.204	7.308
1.198	7.29253
1.192	7.22547
1.186	7.36461
1.18	7.31968
1.174	7.40549
1.168	7.36314
1.162	7.45303
1.156	7.40932
1.15	7.44965
1.144	7.46245
1.138	7.48704
1.132	7.50114
1.126	7.48877
1.12	7.44752
1.114	7.58882
1.108	7.57719
1.102	7.64287
1.096	7.70169
1.09	7.61053
1.084	7.64532
1.078	7.74198
1.072	7.70671
1.066	7.66796
1.06	7.76473
1.054	7.67241
1.048	7.60532
1.042	7.5907
1.036	7.47589
1.03	7.51526
1.024	7.49201
1.018	7.35957
1.012	7.36984
1.006	7.32523
1	7.32984
0.994	7.26361
0.988	7.20856
0.982	7.22569
0.976	7.21251
0.97	7.18765
0.964	7.15993
0.958	7.15025
0.952	7.10496
0.946	7.19653
0.94	7.18195
0.934	7.13186
0.928	7.19243
0.922	7.13105
0.916	7.08927
0.91	7.11608
0.904	7.1523
0.898	7.09437
0.892	7.17119
0.886	7.13857
0.88	7.10086
0.874	7.10317
0.868	7.13335
0.862	7.10365
0.856	7.40182
0.85	7.4089
0.844	7.41371
0.838	7.41689
0.832	7.41977
0.826	7.43402
0.82	7.43246
0.814	7.44683
0.808	7.46295
0.802	7.47087
0.796	7.47622
0.79	7.48174
0.784	7.49336
0.778	7.5058
0.772	7.51245
0.766	7.52605
0.76	7.5451
0.754	7.55025
0.748	7.56254
0.742	7.56715
0.736	7.5797
0.73	7.58858
0.724	7.60037
0.718	7.61346
0.712	7.62361
0.706	7.63461
0.7	7.64698
0.694	7.65802
0.688	7.66768
0.682	7.68473
0.676	7.7013
0.67	7.71406
0.664	7.731
0.658	7.74983
0.652	7.77866
0.646	7.80231
0.64	7.82889
0.634	7.85634
0.628	7.88617
0.622	7.92161
0.616	7.94971
0.61	7.98351
0.604	8.01456
0.598	8.04406
0.592	8.07235
0.586	8.08852
0.58	8.10762
0.574	8.11992
0.568	8.13655
0.562	8.15642
0.556	8.17755
0.55	8.20279
0.544	8.23297
0.538	8.26809
0.532	8.30256
0.526	8.34516
0.52	8.3886
0.514	8.43456
0.508	8.48336
0.502	8.53648
0.496	8.58702
0.49	8.63349
0.484	8.67294
0.478	8.71053
0.472	8.75499
0.466	8.8039
0.46	8.8438
0.454	8.8821
0.448	8.91753
0.442	8.93624
0.436	8.93446
0.43	8.92736
0.424	8.90657
0.418	8.88575
0.412	8.84989
0.406	8.81524
0.4	8.77732
