Name: Red-orange sandy soil
Type: Soils
Class: Aridisol
Particle Size: see additional information
Sample No.: fgg018
Owner: University of NSW
Origin: Fowlers Gap, western New South Wales, Australia
Description: Parent material consists of chiefly aeolian silts/clays.
Measurement: Directional hemispherical reflectance
X Units: Wavelength (micrometers)
Y Units: Reflectance (percent)
wavelength	value
14.013	1.1374
13.79	1.4407
13.573	1.5539
13.363	1.5403
13.16	1.6726
12.962	1.7777
12.771	1.9764
12.585	1.8429
12.404	1.3889
12.228	1.5884
12.058	1.8246
11.892	2.0258
11.73	2.3196
11.573	2.3049
11.42	2.4319
11.271	2.2401
11.126	2.4642
10.985	2.4612
10.847	2.2363
10.713	2.1139
10.581	2.3989
10.453	2.6688
10.328	3.2275
10.206	3.3221
10.087	3.8634
9.971	4.6253
9.857	5.0788
9.746	5.7348
9.637	6.7395
9.531	7.3234
9.427	7.4831
9.325	7.759
9.226	6.8708
9.128	5.8946
9.033	5.3617
8.939	5.4566
8.848	6.2104
8.758	6.0378
8.67	5.4769
8.584	5.5938
8.5	6.2095
8.417	6.73
8.336	7.4899
8.256	8.2642
8.178	8.495
8.101	6.4787
8.026	4.6996
7.952	3.5603
7.88	2.6724
7.809	2.3281
7.739	2.2219
7.67	2.0993
7.602	1.9721
7.536	1.9668
7.471	2.0288
7.407	2.1088
7.344	2.1486
7.282	2.086
7.221	2.236
7.161	2.1927
7.103	2.4895
7.045	2.2995
6.988	2.481
6.932	2.7189
6.876	3.0058
6.822	2.9805
6.769	3.1544
6.716	3.1853
6.664	3.3083
6.613	3.175
6.563	2.8548
6.514	3.0819
6.465	3.431
6.417	3.6164
6.37	3.2999
6.323	2.7888
6.277	2.384
6.232	1.9819
6.187	1.7192
6.143	1.5527
6.1	1.7133
6.057	1.5584
6.015	1.6912
5.973	1.8495
5.932	2.2032
5.892	2.8878
5.852	3.8575
5.813	4.8819
5.774	5.7631
5.735	6.5245
5.698	7.0894
5.66	6.7791
5.623	5.8453
5.587	5.6287
5.551	5.8156
5.516	6.3806
5.481	7.0686
5.446	7.5244
5.412	6.7305
5.378	5.3479
5.345	4.9341
5.312	5.2209
5.28	5.6855
5.248	6.8564
5.216	8.394
5.185	9.0118
5.154	8.9832
5.123	8.9639
5.093	8.7948
5.063	8.5515
5.034	8.5578
5.005	8.7369
4.976	9.5375
4.947	11.0619
4.919	11.9154
4.891	14.4789
4.864	16.3938
4.837	17.2463
4.81	17.8602
4.783	18.3297
4.757	18.6065
4.731	18.941
4.705	18.7552
4.68	18.4461
4.654	19.202
4.629	19.905
4.605	20.3581
4.58	20.6187
4.556	20.9075
4.532	20.8366
4.509	20.1597
4.485	19.8171
4.462	19.836
4.439	20.526
4.416	21.0339
4.394	21.7915
4.372	22.5834
4.35	23.2054
4.328	23.4991
4.306	23.8731
4.285	23.9954
4.264	24.1152
4.243	24.6866
4.222	25.0445
4.202	25.2877
4.181	25.6998
4.161	26.0721
4.141	26.4172
4.122	26.6983
4.102	26.9864
4.083	27.3445
4.063	27.5934
4.044	27.7792
4.026	27.913
4.007	28.0283
3.988	28.0371
3.97	28.1876
3.952	28.255
3.934	28.2174
3.916	28.2208
3.898	27.9638
3.881	27.8871
3.864	27.4659
3.846	27.3455
3.829	27.0237
3.812	26.5683
3.796	26.3148
3.779	25.813
3.763	25.3896
3.746	24.7936
3.73	24.3223
3.714	23.709
3.698	23.3762
3.682	22.7859
3.667	22.416
3.651	21.9038
3.636	21.3169
3.621	20.767
3.606	20.0158
3.591	19.4646
3.576	18.8342
3.561	18.1118
3.546	17.5362
3.532	16.6469
3.518	15.5813
3.503	14.4383
3.489	14.48
3.475	13.6812
3.461	13.2711
3.447	12.5154
3.434	11.632
3.42	10.7927
3.407	10.5775
3.393	10.4288
3.38	10.1266
3.367	9.6844
3.354	9.5981
3.341	9.1457
3.328	8.6776
3.315	8.3064
3.302	7.8315
3.29	7.3862
3.277	6.8884
3.265	6.4255
3.253	6.1083
3.24	5.6384
3.228	5.4414
3.216	4.9959
3.204	4.8108
3.193	4.4654
3.181	4.1861
3.169	3.8695
3.158	3.725
3.146	3.4707
3.135	3.4146
3.123	2.9792
3.112	2.9176
3.101	2.8179
3.09	2.7182
3.079	2.5903
3.068	2.408
3.057	2.4345
3.046	2.5645
3.036	2.4504
3.025	2.3073
3.014	2.3508
3.004	2.311
2.994	2.1853
2.983	2.1013
2.973	2.2315
2.963	2.0383
2.953	2.0679
2.943	1.9905
2.933	1.9079
2.923	2.0064
2.913	2.0155
2.903	2.3089
2.893	2.1097
2.884	2.1931
2.874	2.105
2.865	2.1323
2.855	2.3132
2.846	2.2327
2.836	2.2924
2.827	2.273
2.818	2.3151
2.809	2.3414
2.8	2.3464
2.791	1.7869
2.782	2.0702
2.773	1.6327
2.764	1.6014
2.755	1.48
2.746	1.7929
2.737	1.9054
2.729	2.4737
2.72	3.4344
2.712	3.6225
2.703	2.6304
2.695	7.2531
2.686	14.5733
2.678	19.7346
2.67	23.3924
2.662	25.5402
2.654	27.0473
2.645	28.4394
2.637	29.3315
2.629	30.414
2.621	31.1466
2.613	31.63
2.605	32.1691
2.598	32.3646
2.59	32.5745
2.582	32.7965
2.574	33.1228
2.567	33.2075
2.559	33.5994
2.552	33.6729
2.544	33.7361
2.537	33.7181
2.529	33.9095
2.522	34.1044
2.515	34.3331
2.507	34.3993
2.5	34.7767
2.493	34.9356
2.486	35.3604
2.478	35.7118
2.471	35.9871
2.464	36.4016
2.457	36.8102
2.45	37.1633
2.443	37.5186
2.437	38.2298
2.43	38.7243
2.423	39.3731
2.416	40.0396
2.409	40.422
2.403	40.5936
2.396	40.8701
2.389	40.9592
2.383	40.8616
2.376	41.2706
2.37	41.7211
2.363	42.0857
2.357	42.1033
2.35	42.4261
2.344	43.0492
2.338	43.4351
2.331	44.013
2.325	44.5851
2.319	45.2133
2.313	45.2252
2.306	45.719
2.3	46.1416
2.294	46.2547
2.288	46.5208
2.282	46.8257
2.276	46.9568
2.27	47.1105
2.264	46.9844
2.258	46.8395
2.252	46.575
2.247	46.3844
2.241	46.1072
2.235	46.2978
2.229	46.1961
2.223	45.5652
2.218	44.9069
2.212	43.3561
2.206	43.1352
2.201	44.7568
2.195	45.715
2.189	46.2741
2.184	47.0968
2.179	47.5549
2.173	47.8285
2.168	48.1485
2.162	48.5211
2.157	48.7771
2.151	49.3125
2.146	49.8637
2.141	50.3497
2.135	50.6774
2.13	50.696
2.125	50.7591
2.12	50.76
2.115	50.7385
2.109	50.4558
2.104	50.8346
2.099	50.5827
2.094	50.8565
2.089	50.5209
2.084	50.7445
2.079	50.4112
2.074	50.4579
2.069	50.6104
2.064	50.3054
2.059	49.9949
2.054	49.6474
2.049	50.03
2.045	50.1728
2.04	49.815
2.035	49.4268
2.03	49.415
2.025	49.1118
2.021	48.9973
2.016	48.6216
2.011	48.5031
2.007	47.9104
2.002	47.6409
