Name: Diopside CaMg(SiO_3)_2
Type: Mineral
Class: Silicates
Subclass: Inosilicates
Particle Size: 45-125um
Sample No.: IN-9B
Owner: JPL
Wavelength Range: VNIR-SWIR
Origin: Canada, Quebec
Measurement: Hemispherical reflectance
X Units: Wavelength (micrometers)
Y Units: Reflectance (percent)
wavelength	value
0.4	14.97
0.403	15.35
0.406	15.57
0.409	15.9
0.412	16.15
0.415	16.47
0.418	16.78
0.421	17.16
0.424	17.71
0.427	18.06
0.43	18.51
0.433	19.03
0.436	19.53
0.439	19.96
0.442	20.36
0.445	20.7
0.448	21.04
0.451	21.24
0.454	21.53
0.457	21.66
0.46	21.76
0.463	21.99
0.466	22.26
0.469	22.47
0.472	22.69
0.475	22.89
0.478	23.23
0.481	23.51
0.484	23.85
0.487	24.3
0.49	24.67
0.493	24.91
0.496	25.25
0.499	25.55
0.502	26.01
0.505	26.14
0.508	26.5
0.511	26.84
0.514	27.24
0.517	27.48
0.52	27.67
0.523	27.91
0.526	28.11
0.529	28.44
0.532	28.51
0.535	28.61
0.538	28.69
0.541	28.84
0.544	28.92
0.547	28.9
0.55	29.06
0.553	29.06
0.556	29.18
0.559	29.24
0.562	29.33
0.565	29.49
0.568	29.5
0.571	29.49
0.574	29.34
0.577	29.49
0.58	29.38
0.583	29.46
0.586	29.47
0.589	29.53
0.592	29.41
0.595	29.47
0.598	29.6
0.601	29.47
0.604	29.52
0.607	29.52
0.61	29.69
0.613	29.68
0.616	29.69
0.619	29.67
0.622	29.62
0.625	29.7
0.628	29.81
0.631	29.81
0.634	29.77
0.637	29.75
0.64	29.92
0.643	29.89
0.646	29.98
0.649	30.08
0.652	30.14
0.655	30.2
0.658	30.2
0.661	30.18
0.664	30.23
0.667	30.33
0.67	30.37
0.673	30.43
0.676	30.41
0.679	30.48
0.682	30.49
0.685	30.6
0.688	30.65
0.691	30.58
0.694	30.67
0.697	30.76
0.7	30.72
0.703	30.84
0.706	31
0.709	30.92
0.712	31.06
0.715	31.19
0.718	31.19
0.721	31.21
0.724	31.44
0.727	31.48
0.73	31.5
0.733	31.71
0.736	31.69
0.739	31.88
0.742	31.92
0.745	32.13
0.748	32.19
0.751	32.31
0.754	32.33
0.757	32.56
0.76	32.74
0.763	32.74
0.766	33.04
0.769	33.1
0.772	33.31
0.775	33.37
0.778	33.6
0.781	33.87
0.784	33.77
0.787	33.86
0.79	33.84
0.793	34.06
0.796	34.03
0.799	33.98
0.808	34.44
0.82	34.46
0.832	34.36
0.844	34.11
0.856	34.08
0.868	33.91
0.88	33.74
0.892	33.68
0.904	33.54
0.916	33.39
0.928	33.02
0.94	32.62
0.952	32.17
0.964	31.59
0.976	30.98
0.988	30.27
1	29.73
1.012	29.02
1.024	28.62
1.036	28.26
1.048	28.29
1.06	28.41
1.072	28.98
1.084	29.82
1.096	30.98
1.108	32.21
1.12	33.39
1.132	34.49
1.144	35.55
1.156	36.44
1.168	37.34
1.18	38.12
1.192	38.9
1.204	39.59
1.216	40.15
1.228	40.82
1.24	41.33
1.252	41.93
1.264	42.47
1.276	42.9
1.288	43.52
1.3	44.02
1.312	44.48
1.324	44.92
1.336	45.38
1.348	45.8
1.36	46.22
1.372	46.35
1.384	45.78
1.396	45.33
1.408	47.04
1.42	47.57
1.432	48.01
1.444	48.55
1.456	48.84
1.468	49.2
1.48	49.51
1.492	49.84
1.504	50.24
1.516	50.45
1.528	50.69
1.54	50.89
1.552	51.14
1.564	51.44
1.576	51.7
1.588	51.9
1.6	52.06
1.612	52.31
1.624	52.46
1.636	52.55
1.648	52.67
1.66	52.73
1.672	52.99
1.684	52.98
1.696	53.15
1.708	53.3
1.72	53.39
1.732	53.39
1.744	53.44
1.756	53.42
1.768	53.45
1.78	53.45
1.792	53.45
1.804	53.5
1.816	53.52
1.828	53.56
1.84	53.42
1.852	53.26
1.864	53.05
1.876	52.51
1.888	51.77
1.9	50.6
1.912	50.17
1.924	50.45
1.936	50.47
1.948	50.64
1.96	50.71
1.972	50.87
1.984	50.98
1.996	51.14
2.008	51.13
2.02	51.06
2.032	51.05
2.044	50.95
2.056	50.85
2.068	50.68
2.08	50.38
2.092	50.15
2.104	50.09
2.116	49.96
2.128	49.79
2.14	49.44
2.152	49.22
2.164	48.87
2.176	48.56
2.188	48.25
2.2	47.89
2.212	47.68
2.224	47.29
2.236	46.98
2.248	46.82
2.26	46.46
2.272	45.8
2.284	44.66
2.296	43.43
2.308	42.4
2.32	42.86
2.332	44.09
2.344	45
2.356	45.27
2.368	44.93
2.38	44.51
2.392	44.58
2.404	45.02
2.416	45.36
2.428	45.57
2.44	45.59
2.452	45.61
2.464	45.76
2.476	45.97
2.488	46.31
2.5	46.69
