Name: Trona Na_3(CO_3)(HCO_3).2H_2O
Type: Mineral
Class: Carbonates
Particle Size: 125-500um
Sample No.: C-4A
Owner: JPL
Origin: USA, Wyoming, Sweetwater County.
Measurement: Hemispherical reflectance
X Units: Wavelength (micrometers)
Y Units: Reflectance (percent)
wavelength	value
2.5	3.48202
2.494	3.65281
2.488	3.66728
2.482	3.75443
2.476	3.93674
2.47	3.8038
2.464	3.82546
2.458	3.83109
2.452	3.89002
2.446	3.93208
2.44	3.9019
2.434	3.87477
2.428	3.98412
2.422	3.90734
2.416	3.92117
2.41	3.89079
2.404	3.92316
2.398	3.93685
2.392	4.03727
2.386	4.14013
2.38	4.36892
2.374	4.43731
2.368	4.69261
2.362	4.93062
2.356	5.0725
2.35	5.27675
2.344	5.48103
2.338	5.62486
2.332	5.6847
2.326	5.87729
2.32	6.04206
2.314	6.14608
2.308	6.3298
2.302	6.54356
2.296	6.69067
2.29	6.76276
2.284	6.86174
2.278	7.00516
2.272	7.13988
2.266	7.20837
2.26	7.24182
2.254	7.2667
2.248	7.34825
2.242	7.38647
2.236	7.30651
2.23	7.17866
2.224	7.09966
2.218	7.14494
2.212	7.28427
2.206	7.25683
2.2	7.31011
2.194	7.38107
2.188	7.43069
2.182	7.54948
2.176	7.58028
2.17	7.57678
2.164	7.54946
2.158	7.60184
2.152	7.52489
2.146	7.53235
2.14	7.453
2.134	7.39838
2.128	7.34578
2.122	7.18867
2.116	7.07529
2.11	6.85471
2.104	6.74599
2.098	6.57437
2.092	6.43134
2.086	6.26613
2.08	6.1622
2.074	5.95187
2.068	5.8215
2.062	5.69857
2.056	5.67286
2.05	5.52503
2.044	5.47312
2.038	5.57118
2.032	5.70574
2.026	5.86716
2.02	6.13523
2.014	6.37169
2.008	6.54041
2.002	6.72879
1.996	6.82616
1.99	6.7953
1.984	6.8154
1.978	6.5956
1.972	6.49169
1.966	6.11226
1.96	5.74554
1.954	5.38094
1.948	5.14563
1.942	5.09791
1.936	5.40861
1.93	6.10564
1.924	7.08863
1.918	8.43788
1.912	9.69587
1.906	11.0312
1.9	12.283
1.894	13.5293
1.888	14.4903
1.882	15.4031
1.876	16.1822
1.87	16.8155
1.864	17.4866
1.858	17.9664
1.852	18.3502
1.846	18.7409
1.84	19.0855
1.834	19.2453
1.828	19.4569
1.822	19.4821
1.816	19.5968
1.81	19.6936
1.804	19.7871
1.798	19.8952
1.792	19.9812
1.786	20.0524
1.78	20.1327
1.774	20.2226
1.768	20.2958
1.762	20.2559
1.756	20.2702
1.75	20.358
1.744	20.4732
1.738	20.7914
1.732	21.174
1.726	21.6388
1.72	22.1789
1.714	22.7279
1.708	23.3149
1.702	23.8738
1.696	24.3462
1.69	24.984
1.684	25.6252
1.678	26.2445
1.672	26.9063
1.666	27.6772
1.66	28.4175
1.654	29.185
1.648	29.8751
1.642	30.5618
1.636	31.2013
1.63	31.8029
1.624	32.3681
1.618	32.9337
1.612	33.4561
1.606	33.9688
1.6	34.4201
1.594	34.7749
1.588	35.1368
1.582	35.329
1.576	35.396
1.57	35.2766
1.564	34.8254
1.558	34.1535
1.552	33.3594
1.546	32.1815
1.54	31.0048
1.534	30.1051
1.528	29.7433
1.522	29.9207
1.516	30.2117
1.51	30.5034
1.504	30.9895
1.498	31.638
1.492	32.5437
1.486	33.5935
1.48	34.9212
1.474	36.3982
1.468	38.1673
1.462	40.0238
1.456	41.9286
1.45	44.034
1.444	46.5083
1.438	49.2781
1.432	52.1983
1.426	54.8422
1.42	57.1618
1.414	58.9852
1.408	60.4079
1.402	61.5866
1.396	62.5459
1.39	63.0729
1.384	63.6088
1.378	63.8167
1.372	64.0986
1.366	64.383
1.36	64.5941
1.354	64.7885
1.348	64.8904
1.342	65.1668
1.336	65.5057
1.33	66.0212
1.324	66.5639
1.318	67.0682
1.312	67.5155
1.306	67.9279
1.3	68.3907
1.294	68.7131
1.288	68.9646
1.282	69.0767
1.276	69.1095
1.27	69.0118
1.264	68.8859
1.258	68.7375
1.252	68.4784
1.246	68.2502
1.24	68.2044
1.234	68.2483
1.228	68.3693
1.222	68.4813
1.216	68.6901
1.21	68.8122
1.204	68.9929
1.198	69.3725
1.192	69.8461
1.186	70.4511
1.18	71.1338
1.174	71.8837
1.168	72.7831
1.162	73.5554
1.156	74.3216
1.15	74.9055
1.144	75.354
1.138	75.7159
1.132	75.8506
1.126	76.0036
1.12	76.0835
1.114	76.1162
1.108	76.1713
1.102	76.2145
1.096	76.273
1.09	76.2751
1.084	76.3362
1.078	76.4012
1.072	76.3114
1.066	76.2029
1.06	76.2142
1.054	76.0965
1.048	76.1006
1.042	75.9791
1.036	75.8072
1.03	75.6707
1.024	75.4768
1.018	75.4756
1.012	75.4238
1.006	75.4413
1	75.5189
0.994	75.6015
0.988	75.7036
0.982	75.8924
0.976	76.0835
0.97	76.2695
0.964	76.4393
0.958	76.5263
0.952	76.4958
0.946	76.5678
0.94	76.578
0.934	76.5877
0.928	76.5696
0.922	76.5683
0.916	76.5238
0.91	76.5039
0.904	76.4006
0.898	76.3559
0.892	76.3283
0.886	76.3291
0.88	76.2672
0.874	76.3347
0.868	76.2562
0.862	76.274
0.856	76.177
0.85	76.1453
0.844	76.1914
0.838	76.0801
0.832	76.0987
0.826	76.1221
0.82	76.0098
0.814	75.9495
0.808	75.9008
0.802	75.8562
0.796	75.7077
0.79	75.6077
0.784	75.5169
0.778	75.4254
0.772	75.3096
0.766	75.2395
0.76	75.1945
0.754	75.1534
0.748	75.0464
0.742	74.9707
0.736	74.8527
0.73	74.7833
0.724	74.6605
0.718	74.5423
0.712	74.4011
0.706	74.2643
0.7	74.1207
0.694	73.9973
0.688	73.8249
0.682	73.6613
0.676	73.4863
0.67	73.3274
0.664	73.1064
0.658	72.9129
0.652	72.6935
0.646	72.4768
0.64	72.2473
0.634	72.0081
0.628	71.7336
0.622	71.4587
0.616	71.2063
0.61	70.9219
0.604	70.6445
0.598	70.3622
0.592	70.0749
0.586	69.7136
0.58	69.3237
0.574	68.9011
0.568	68.4541
0.562	68.0586
0.556	67.6224
0.55	67.1679
0.544	66.7472
0.538	66.3254
0.532	65.8216
0.526	65.3399
0.52	64.82
0.514	64.2735
0.508	63.6945
0.502	63.0647
0.496	62.3816
0.49	61.6469
0.484	60.8725
0.478	60.1595
0.472	59.4079
0.466	58.6081
0.46	57.7477
0.454	56.781
0.448	55.7323
0.442	54.574
0.436	53.4615
0.43	52.2698
0.424	51.1099
0.418	49.9655
0.412	48.7943
0.406	47.7372
0.4	46.767
