Name: Bornite Cu_5FeS_4
Type: Mineral
Class: Sulfides
Particle Size: 125-500um
Sample No.: S-9A
Owner: JPL
Wavelength Range: VNIR-SWIR
Origin: USA, Arizona, Pinal County, Superior, Magma Mine
Measurement: Hemispherical reflectance
X Units: Wavelength (micrometers)
Y Units: Reflectance (percent)
wavelength	value
0.4	8.33
0.403	8.22
0.406	8.2
0.409	8.09
0.412	8.04
0.415	7.97
0.418	7.93
0.421	7.8
0.424	7.66
0.427	7.67
0.43	7.56
0.433	7.54
0.436	7.43
0.439	7.37
0.442	7.29
0.445	7.22
0.448	7.11
0.451	7.06
0.454	7.05
0.457	6.91
0.46	6.91
0.463	6.86
0.466	6.69
0.469	6.77
0.472	6.59
0.475	6.65
0.478	6.41
0.481	6.46
0.484	6.39
0.487	6.31
0.49	6.23
0.493	6.15
0.496	6.13
0.499	5.99
0.502	6.03
0.505	5.91
0.508	5.8
0.511	5.73
0.514	5.6
0.517	5.72
0.52	5.59
0.523	5.52
0.526	5.41
0.529	5.37
0.532	5.43
0.535	5.18
0.538	5.18
0.541	5.12
0.544	5.04
0.547	5.07
0.55	4.92
0.553	4.97
0.556	4.92
0.559	4.83
0.562	4.94
0.565	4.78
0.568	4.78
0.571	4.77
0.574	4.76
0.577	4.77
0.58	4.82
0.583	4.71
0.586	4.69
0.589	4.64
0.592	4.69
0.595	4.76
0.598	4.62
0.601	4.71
0.604	4.61
0.607	4.82
0.61	4.76
0.613	4.7
0.616	4.7
0.619	4.89
0.622	4.86
0.625	4.87
0.628	4.76
0.631	4.76
0.634	4.93
0.637	4.99
0.64	4.93
0.643	4.94
0.646	4.99
0.649	5.15
0.652	5.09
0.655	5.23
0.658	5.28
0.661	5.15
0.664	5.38
0.667	5.4
0.67	5.44
0.673	5.45
0.676	5.56
0.679	5.63
0.682	5.73
0.685	5.67
0.688	5.72
0.691	5.91
0.694	5.96
0.697	5.98
0.7	5.9
0.703	6
0.706	6.18
0.709	6.07
0.712	6.19
0.715	6.36
0.718	6.35
0.721	6.37
0.724	6.46
0.727	6.47
0.73	6.63
0.733	6.71
0.736	6.71
0.739	6.74
0.742	6.88
0.745	6.85
0.748	7.09
0.751	6.99
0.754	7.08
0.757	7.15
0.76	7.15
0.763	7.37
0.766	7.3
0.769	7.43
0.772	7.42
0.775	7.52
0.778	7.66
0.781	7.63
0.784	7.68
0.787	7.8
0.79	7.85
0.793	7.98
0.796	8.01
0.799	7.98
0.808	8.42
0.82	8.71
0.832	8.89
0.844	9.09
0.856	9.27
0.868	9.38
0.88	9.57
0.892	9.64
0.904	9.76
0.916	9.96
0.928	10.07
0.94	10.19
0.952	10.32
0.964	10.32
0.976	10.43
0.988	10.52
1	10.6
1.012	10.68
1.024	10.78
1.036	10.79
1.048	10.86
1.06	10.95
1.072	11
1.084	11.09
1.096	11.21
1.108	11.18
1.12	11.27
1.132	11.33
1.144	11.36
1.156	11.44
1.168	11.49
1.18	11.49
1.192	11.55
1.204	11.6
1.216	11.69
1.228	11.72
1.24	11.77
1.252	11.89
1.264	11.87
1.276	11.88
1.288	12.03
1.3	12.01
1.312	12.06
1.324	12.04
1.336	12.25
1.348	12.18
1.36	12.28
1.372	12.2
1.384	12.29
1.396	12.32
1.408	12.38
1.42	12.43
1.432	12.47
1.444	12.48
1.456	12.46
1.468	12.5
1.48	12.54
1.492	12.58
1.504	12.62
1.516	12.69
1.528	12.73
1.54	12.65
1.552	12.71
1.564	12.78
1.576	12.8
1.588	12.8
1.6	12.79
1.612	12.81
1.624	12.84
1.636	12.81
1.648	12.82
1.66	12.83
1.672	12.97
1.684	12.94
1.696	12.99
1.708	13.05
1.72	12.99
1.732	12.99
1.744	13
1.756	13.04
1.768	12.99
1.78	12.96
1.792	13.09
1.804	13.08
1.816	13.09
1.828	13.15
1.84	13.11
1.852	13.18
1.864	13.17
1.876	13.18
1.888	13.16
1.9	13.22
1.912	13.18
1.924	13.07
1.936	13.09
1.948	13.17
1.96	13.17
1.972	13.13
1.984	13.27
1.996	13.31
2.008	13.34
2.02	13.34
2.032	13.29
2.044	13.36
2.056	13.41
2.068	13.33
2.08	13.4
2.092	13.41
2.104	13.47
2.116	13.5
2.128	13.46
2.14	13.52
2.152	13.46
2.164	13.47
2.176	13.52
2.188	13.54
2.2	13.5
2.212	13.49
2.224	13.47
2.236	13.52
2.248	13.53
2.26	13.54
2.272	13.59
2.284	13.63
2.296	13.66
2.308	13.49
2.32	13.49
2.332	13.51
2.344	13.63
2.356	13.6
2.368	13.68
2.38	13.71
2.392	13.74
2.404	13.76
2.416	13.8
2.428	13.81
2.44	13.82
2.452	13.77
2.464	13.84
2.476	13.85
2.488	13.93
2.5	14.01
