Name: Flat Black Paint
Type: Manmade materials
Class: General Construction Materials
Subclass: Paints
Particle Size: Solid
Sample No.: 1249
Owner: JPL
Origin: The Testor Corp., 620 Buckbee St., Rockford, IL 61104
Description: Flat black spray enamel paint
Measurement: Hemispherical reflectance
X Units: Wavelength (micrometers)
Y Units: Reflectance (percent)
wavelength	value
14.0131	6.39744
13.7895	6.68226
13.5729	7.01514
13.363	6.48465
13.1595	7.38586
12.9621	7.11817
12.7705	6.58474
12.5845	6.6919
12.4039	7.14848
12.2284	6.5741
12.0578	7.05338
11.8918	7.40159
11.7304	7.75267
11.5733	7.5807
11.4203	7.77723
11.2714	7.69374
11.1263	7.64785
10.9848	7.84111
10.8469	7.91003
10.7125	7.97372
10.5813	8.35953
10.4533	8.53579
10.3284	8.84899
10.2064	9.68176
10.0872	10.8087
9.97084	12.216
9.8571	14.4382
9.74592	12.556
9.63724	8.9699
9.53094	6.92362
9.42697	6.45241
9.32524	6.06868
9.22568	5.92201
9.12823	6.01036
9.03281	6.07151
8.93937	5.96718
8.84784	5.71711
8.75816	5.75421
8.67029	5.73669
8.58416	6.0468
8.49973	5.6576
8.41693	5.77189
8.33574	5.75261
8.2561	5.95219
8.17797	5.91827
8.10131	6.033
8.02606	6.21897
7.9522	5.88214
7.87969	5.88775
7.80849	5.47742
7.73856	5.24512
7.66987	5.17593
7.60239	5.26034
7.5361	5.56792
7.47094	5.61511
7.4069	5.55436
7.34396	5.80414
7.28207	5.79251
7.22122	5.68299
7.16137	5.82091
7.10251	5.88562
7.04461	5.84592
6.98765	5.99435
6.9316	5.9208
6.87644	5.80034
6.82215	5.60657
6.76871	5.60116
6.71611	5.79302
6.66431	5.84338
6.61331	5.81355
6.56308	5.90167
6.51361	5.99454
6.46488	6.01972
6.41687	6.20674
6.36957	6.12395
6.32297	5.96487
6.27704	6.07784
6.23177	6.08301
6.18715	5.99036
6.14317	6.00677
6.0998	6.21105
6.05705	6.17834
6.01489	6.32133
5.97331	6.31209
5.9323	6.3193
5.89186	6.34995
5.85196	6.35797
5.81259	6.41099
5.77376	6.05276
5.73543	5.31058
5.69762	5.09741
5.6603	5.55303
5.62347	5.81991
5.5871	5.76816
5.55121	5.77296
5.51578	5.86635
5.4808	5.91365
5.44625	5.86995
5.41214	5.85884
5.37846	5.97652
5.34519	5.94499
5.31233	5.97617
5.27987	5.94105
5.24781	6.05614
5.21613	5.92954
5.18483	5.85816
5.15391	5.92347
5.12335	5.96414
5.09316	5.97152
5.06331	6.04392
5.03382	6.07895
5.00467	5.94112
4.97585	6.04646
4.94736	6.05241
4.9192	5.97285
4.89135	6.08376
4.86382	6.06979
4.8366	6.07152
4.80968	6.00638
4.78306	6.03772
4.75673	6.11214
4.73069	6.09997
4.70493	6.04014
4.67945	5.97951
4.65425	6.03076
4.62932	6.06816
4.60465	6.05298
4.58024	6.05185
4.55609	6.10738
4.5322	6.11832
4.50855	6.12901
4.48515	6.00519
4.46199	6.08109
4.43907	6.07468
4.41638	6.04339
4.39393	6.14233
4.3717	6.06691
4.34969	6.0603
4.32791	6.06426
4.30634	6.03626
4.28499	6.08902
4.26384	6.0361
4.24291	6.04923
4.22218	6.18136
4.20165	6.03268
4.18132	6.09153
4.16118	6.1849
4.14124	6.02581
4.12149	6.05557
4.10192	6.09001
4.08255	6.09139
4.06335	6.1112
4.04433	6.19495
4.02549	6.27682
4.00683	6.07008
3.98833	5.95228
3.97001	6.15746
3.95186	5.9915
3.93386	5.99604
3.91604	6.1112
3.89837	6.03962
3.88086	6.11042
3.86351	6.19423
3.84631	6.20075
3.82927	6.01196
3.81238	6.09352
3.79563	6.06051
3.77903	6.19355
3.76258	6.12879
3.74627	6.09869
3.7301	6.06358
3.71406	6.06647
3.69817	6.08628
3.68241	6.05749
3.66678	6.20651
3.65129	6.07536
3.63593	6.03375
3.62069	6.16063
3.60559	6.19801
3.59061	6.13129
3.57575	6.20163
3.56101	6.25018
3.5464	6.1807
3.5319	6.3957
3.51753	6.41609
3.50327	6.05321
3.48912	6.18186
3.47509	6.08979
3.46117	6.2281
3.44736	6.20853
3.43367	6.42946
3.42007	5.84967
3.40659	5.69283
3.39322	5.77747
3.37994	5.75126
3.36678	5.71086
3.35371	5.74688
3.34074	5.86498
3.32788	5.84441
3.31511	5.75874
3.30244	5.82092
3.28987	5.69641
3.27739	5.82297
3.26501	5.85317
3.25272	5.92546
3.24052	5.79631
3.22841	5.92485
3.2164	5.86497
3.20447	5.94086
3.19263	5.94144
3.18088	5.8974
3.16921	5.90398
3.15763	6.01082
3.14614	6.0408
3.13472	5.96948
3.12339	6.02867
3.11214	5.99137
3.10098	5.86781
3.08989	5.83551
3.07888	5.94087
3.06795	5.85915
3.0571	6.0361
3.04632	5.86021
3.03562	5.93459
3.02499	5.92105
3.01444	6.04968
3.00396	6.08989
2.99355	5.92411
2.98322	6.12825
2.97295	5.98968
2.96276	5.94322
2.95264	6.12855
2.94258	6.00444
2.9326	5.918
2.92268	5.93377
2.91283	6.06113
2.90304	5.92276
2.89332	5.80705
2.88367	5.77652
2.87408	5.8045
2.86455	5.85806
2.85508	6.10593
2.84568	5.87835
2.83634	5.80031
2.82706	5.85069
2.81784	5.77671
2.80869	5.91261
2.79959	5.78635
2.79055	5.94131
2.78156	5.76801
2.77264	6.02886
2.76377	5.86505
2.75496	5.98573
2.7462	5.80884
2.7375	5.9196
2.72886	5.84758
2.72027	5.67245
2.71173	5.8117
2.70325	5.96219
2.69482	5.73749
2.68644	5.89189
2.67812	5.83512
2.66984	5.89044
2.66162	5.77966
2.65345	5.74861
2.64532	5.71955
2.63725	5.83879
2.62923	5.95039
2.62125	5.72104
2.61332	5.90933
2.60544	5.93732
2.59761	5.73036
2.58983	6.02382
2.58209	5.80094
2.5744	5.88141
2.56675	5.76867
2.55915	5.85108
2.55159	5.81701
2.54408	5.72788
2.53661	5.84782
2.52919	5.73292
2.52181	5.70693
2.51447	5.63846
2.50717	5.77971
2.49992	5.80758
2.49271	5.92462
2.48554	5.75786
2.47841	5.71464
2.47132	5.79026
2.46427	5.84662
2.45727	5.75487
2.4503	5.73005
2.44337	5.74882
2.43648	5.69947
2.42963	5.85706
2.42282	5.68321
2.41605	5.82384
2.40931	5.77457
2.40261	5.58908
2.39595	5.6902
2.38932	5.77279
2.38274	5.80793
2.37618	5.82344
2.36967	5.69388
2.36319	5.72313
2.35674	5.60833
2.35033	5.65078
2.34396	5.8304
2.33762	5.79185
2.33131	5.66123
2.32504	5.873
2.3188	5.77168
2.31259	5.62498
2.30642	5.7626
2.30028	5.94153
2.29417	5.84149
2.2881	5.51074
2.28206	5.55524
2.27605	5.83702
2.27007	5.82366
2.26412	5.55931
2.2582	5.8189
2.25232	5.95273
2.24646	5.68768
2.24064	5.75286
2.23484	5.71207
2.22908	5.67855
2.22334	5.7883
2.21764	5.73494
2.21196	5.56737
2.20631	5.57058
2.20069	5.49307
2.1951	5.78526
2.18954	5.88553
2.18401	5.742
2.1785	5.64167
2.17302	5.75055
2.16757	5.59004
2.16215	5.70655
2.15675	5.46795
2.15138	5.72346
2.14604	5.63596
2.14072	5.92709
2.13543	5.78444
2.13017	5.70532
2.12493	5.9107
2.11972	5.52789
2.11453	5.40904
2.10937	5.53613
2.10423	5.60442
2.09912	5.36948
2.09404	5.60964
2.08897	5.8289
2.08394	6.10013
2.07892	6.03089
2.07393	5.55102
2.06897	5.60579
2.06403	5.472
2.05911	5.49392
2.05421	5.85124
2.04934	5.52331
2.04449	5.64508
2.03967	5.47641
2.03486	5.89331
2.03008	5.47175
2.02533	5.71706
2.02059	5.86805
2.01588	5.74094
2.01118	5.56173
2.00651	5.71419
2.00187	5.62536
