Name: Ferroaxinite Ca_2Fe^2+Al_2BSi_4O_15(OH)
Type: Mineral
Class: Silicates
Subclass: Cyclosilicates
Particle Size: 45-125um
Sample No.: CS-4A
Owner: JPL
Origin: Mexico, Baja California Norte, Los Gavelontos
Measurement: Hemispherical reflectance
X Units: Wavelength (micrometers)
Y Units: Reflectance (percent)
wavelength	value
15.385	1.6051
15.116	2.6743
14.856	2.2527
14.605	1.8136
14.362	2.2997
14.128	2.9883
13.9	3.7661
13.68	4.0934
13.467	4.2564
13.26	5.0804
13.06	5.2761
12.866	5.6259
12.677	5.2469
12.494	6.0901
12.316	6.9007
12.143	8.0899
11.974	8.1012
11.811	10.5072
11.651	12.2768
11.496	14.9723
11.345	17.6853
11.198	18.2163
11.055	12.1227
10.915	14.8926
10.779	17.7929
10.647	22.5684
10.517	23.8976
10.39	14.5815
10.267	8.7568
10.146	7.7216
10.029	7.7358
9.914	9.8489
9.801	6.0469
9.691	8.1286
9.584	15.0932
9.479	16.2407
9.376	20.9511
9.275	20.9399
9.177	22.1824
9.08	21.2864
8.986	13.4538
8.893	8.6767
8.803	6.2007
8.714	5.8307
8.627	2.654
8.542	0.9634
8.458	0.3055
8.376	0
8.296	0.2765
8.217	0.0927
8.139	0.2159
8.063	0.5618
7.989	0.6189
7.916	0.8336
7.844	1.1871
7.773	1.4536
7.704	1.7708
7.636	2.1175
7.569	2.6035
7.503	2.9857
7.439	3.4499
7.375	3.7621
7.313	4.2563
7.252	4.6731
7.191	5.0971
7.132	5.4855
7.073	5.8552
7.016	6.0442
6.96	6.4667
6.904	6.3807
6.849	6.5718
6.795	6.7113
6.742	6.4892
6.69	6.7493
6.639	7.3968
6.588	7.4227
6.538	7.5528
6.489	8.2308
6.441	7.9972
6.393	8.0841
6.346	8.7567
6.3	8.5989
6.254	8.6369
6.209	8.9727
6.165	9.4812
6.121	9.7842
6.078	9.7743
6.036	9.6944
5.994	9.472
5.953	8.727
5.912	7.9017
5.872	6.8323
5.832	5.6662
5.793	4.9093
5.755	4.5838
5.716	5.0484
5.679	5.6981
5.642	6.9446
5.605	7.5061
5.569	7.8863
5.533	8.3587
5.498	8.6201
5.463	8.6975
5.429	8.7279
5.395	9.1268
5.362	9.2961
5.329	9.5217
5.296	10.1616
5.264	10.44
5.232	10.5027
5.2	10.4554
5.169	10.3869
5.139	10.8423
5.108	11.4117
5.078	11.9024
5.049	12.399
5.019	13.0492
4.99	13.5905
4.962	14.0954
4.933	14.801
4.905	15.5411
4.878	16.5872
4.85	17.5961
4.823	18.4696
4.796	19.3181
4.77	20.6614
4.744	21.7781
4.718	22.8052
4.692	24.0216
4.667	25.5723
4.642	27.3146
4.617	28.9976
4.592	30.2075
4.568	30.4384
4.544	30.6431
4.52	30.7793
4.497	31.0774
4.474	32.7107
4.45	34.2946
4.428	36.2112
4.405	37.8571
4.383	39.7113
4.361	41.3094
4.339	42.4626
4.317	43.2873
4.296	44.2726
4.274	44.8374
4.253	45.0917
4.233	45.8203
4.212	45.7463
4.191	45.7749
4.171	46.0034
4.151	46.0981
4.131	46.0505
4.112	45.8198
4.092	45.4797
4.073	45.116
4.054	44.9581
4.035	44.8166
4.016	45.4668
3.998	46.1044
3.979	44.952
3.961	46.5638
3.943	46.8157
3.925	46.8976
3.907	47.4879
3.89	47.6549
3.872	47.375
3.855	46.4765
3.838	45.2641
3.821	44.2179
3.804	43.4377
3.787	43.1554
3.771	43.4187
3.754	43.8773
3.738	44.2606
3.722	44.0407
3.706	43.4759
3.69	42.5728
3.675	41.5809
3.659	40.8626
3.644	40.9261
3.628	41.3185
3.613	41.8014
3.598	41.8894
3.583	41.686
3.568	41.3609
3.554	40.8403
3.539	40.1576
3.525	39.8814
3.51	39.6359
3.496	39.3199
3.482	38.6226
3.468	37.8666
3.454	37.1157
3.441	36.5706
3.427	36.6415
3.413	36.2251
3.4	35.3044
3.387	33.2227
3.373	30.5824
3.36	28.7356
3.347	28.4355
3.334	29.0432
3.321	29.3296
3.309	29.5869
3.296	29.0626
3.284	28.1935
3.271	26.5431
3.259	24.8003
3.247	23.4122
3.234	22.1796
3.222	21.2996
3.21	20.876
3.199	20.7066
3.187	20.1384
3.175	19.3513
3.163	19.0386
3.152	18.9794
3.14	19.0081
3.129	18.3643
3.118	17.5641
3.107	16.1984
3.095	14.3513
3.084	12.9295
3.073	12.0045
3.063	11.4865
3.052	11.1482
3.041	11.3947
3.03	11.5996
3.02	11.3698
3.009	11.0085
2.999	9.6038
2.988	8.3893
2.978	7.8093
2.968	7.0355
2.958	6.6018
2.948	5.9679
2.938	6.0876
2.928	7.0552
2.918	8.0876
2.908	9.1163
2.898	9.5573
2.888	9.7611
2.879	9.9101
2.869	10.211
2.86	11.1199
2.85	11.8172
2.841	13.3592
2.832	14.6675
2.822	16.3347
2.813	17.2368
2.804	18.1714
2.795	17.9383
2.786	18.124
2.777	18.6552
2.768	20.5821
2.759	22.0206
2.751	23.5911
2.742	25.0397
2.733	25.6221
2.725	29.0614
2.716	31.5349
2.707	35.0688
2.699	37.2626
2.691	38.7601
2.682	39.869
2.674	39.4861
2.666	40.4385
2.658	39.8195
2.649	42.6536
2.641	44.7858
2.633	45.8154
2.625	46.045
2.617	47.3822
2.609	46.7125
2.602	46.3336
2.594	47.4477
2.586	45.7109
2.578	45.4652
2.571	45.1109
2.563	44.4885
2.555	42.5791
2.548	41.8297
2.54	40.967
2.533	40.3343
2.525	39.7325
2.518	39.6349
2.511	39.2075
2.504	38.7457
2.496	38.3801
2.489	38.0983
2.482	37.9266
2.475	37.8197
2.468	37.4094
2.461	36.6133
2.454	35.902
2.447	35.3469
2.44	34.4678
2.433	33.7634
2.426	32.9528
2.419	32.0531
2.413	31.2496
2.406	30.3534
2.399	29.1596
2.393	28.2154
2.386	26.5562
2.379	24.2294
2.373	21.7958
2.366	21.9367
2.36	22.4692
2.354	22.5112
2.347	21.5739
2.341	20.49
2.334	18.4441
2.328	16.2424
2.322	15.8615
2.316	16.3868
2.309	16.5377
2.303	16.793
2.297	17.1123
2.291	17.6773
2.285	18.0486
2.279	17.9905
2.273	18.0744
2.267	18.159
2.261	18.2284
2.255	18.4939
2.249	18.7177
2.244	18.6704
2.238	18.573
2.232	18.5877
2.226	18.1967
2.22	18.3166
2.215	18.2127
2.209	17.8886
2.204	17.6596
2.198	17.7522
2.192	17.6854
2.187	17.2737
2.181	17.3664
2.176	17.3708
2.17	17.2148
2.165	17.315
2.159	16.956
2.154	17.1813
2.149	17.046
2.143	16.8512
2.138	16.6317
2.133	16.4321
2.128	16.3481
2.122	16.6336
2.117	16.4534
2.112	16.2989
2.107	16.5571
2.102	16.3679
2.097	16.6235
2.091	16.4934
2.086	16.4196
2.081	16.3728
2.076	16.4559
2.071	16.0891
2.066	16.4672
2.062	16.7384
2.057	16.6294
2.052	16.3742
2.047	16.5392
2.042	16.5585
2.037	16.633
2.032	16.8383
2.028	16.3557
2.023	16.619
2.018	16.8935
2.014	16.9792
2.009	16.9814
2.004	17.1027
