Name: Diatomaceous Earth
Type: Rock
Class: Sedimentary
Subclass: Siliceous
Particle Size: Solid surface
Sample No.: Ward57.txt
Owner: JPL
Origin: Ward's Collection of American Rocks.  Sample locality - Lompoc, Santa Barbara County, California.
Description: A soft, white chalky rock.
Measurement: Hemispherical reflectance
X Units: Wavelength (micrometers)
Y Units: Reflectance (percent)
wavelength	value
15.3871	1.03883
15.118	1.0907
14.8581	1.46181
14.6069	1.46412
14.3642	1.8794
14.1293	1.57293
13.9021	2.04175
13.682	2.12075
13.4687	2.05792
13.2621	2.46829
13.0616	2.55594
12.8672	2.12132
12.6784	1.79509
12.4951	1.21663
12.317	1.2712
12.1439	1.25928
11.9757	1.514
11.812	2.54903
11.6527	3.53864
11.4977	4.20996
11.3468	4.59114
11.1997	4.64964
11.0564	4.71273
10.9168	4.57499
10.7806	4.43838
10.6478	4.51217
10.5182	4.79391
10.3917	5.5719
10.2683	6.18054
10.1477	7.33034
10.0299	7.67932
9.9148	7.61702
9.8024	7.04428
9.6925	6.10716
9.585	5.36894
9.4798	4.65047
9.377	4.42561
9.2763	4.77697
9.1778	4.9408
9.0814	5.431
8.987	5.8578
8.8945	4.39042
8.8039	3.24661
8.7151	2.31518
8.6281	1.91296
8.5428	1.65377
8.4592	1.47033
8.3772	1.54962
8.2967	1.49422
8.2179	1.41686
8.1404	1.45477
8.0645	1.28925
7.9899	1.41918
7.9167	1.65091
7.8449	1.46701
7.7743	1.21398
7.705	0.95155
7.6369	0.64995
7.57	0.5133
7.5043	0.44715
7.4397	0.3337
7.3762	0.36866
7.3138	0.41833
7.2524	0.41719
7.1921	0.49665
7.1327	0.83278
7.0743	1.06324
7.0169	1.30629
6.9604	1.54561
6.9047	1.77834
6.85	1.85663
6.7962	2.19787
6.7431	2.51262
6.6909	2.80118
6.6395	3.14411
6.5889	3.39605
6.539	3.76121
6.49	4.09565
6.4416	4.29301
6.3939	4.52184
6.347	4.44244
6.3007	4.31663
6.2551	3.81765
6.2101	3.08867
6.1658	2.73
6.1222	2.66765
6.0791	2.7287
6.0366	3.12342
5.9948	3.62325
5.9535	4.33237
5.9127	4.83252
5.8726	5.94247
5.8329	6.68937
5.7938	7.59228
5.7552	8.38673
5.7172	9.0784
5.6796	9.44805
5.6425	10.0124
5.6059	10.2499
5.5698	10.465
5.5341	10.602
5.4989	10.6269
5.4641	10.1852
5.4298	9.43795
5.3959	8.6985
5.3624	8.08472
5.3294	7.92582
5.2967	8.3978
5.2644	9.36833
5.2326	10.7453
5.2011	11.9774
5.17	12.8063
5.1392	13.0342
5.1088	13.0119
5.0788	12.8574
5.0491	12.8805
5.0198	12.9094
4.9908	13.2562
4.9622	13.9314
4.9338	14.8541
4.9058	16.3344
4.8781	18.0527
4.8508	19.621
4.8237	21.102
4.7969	22.1887
4.7704	22.9759
4.7443	23.5442
4.7184	23.8891
4.6927	24.071
4.6674	24.4459
4.6423	24.7854
4.6175	25.008
4.593	25.4699
4.5687	25.6909
4.5447	25.9761
4.5209	26.2545
4.4974	26.4264
4.4741	26.6821
4.451	26.7944
4.4282	27.1535
4.4057	27.2
4.3833	27.819
4.3612	28.2053
4.3393	28.6725
4.3176	29.1208
4.2962	29.0691
4.2749	25.1749
4.2539	30.3684
4.233	30.9756
4.2124	31.8035
4.192	32.5894
4.1717	33.1968
4.1517	33.6463
4.1319	34.1156
4.1122	34.5525
4.0927	35.0178
4.0734	35.4245
4.0543	35.6409
4.0354	36.141
4.0166	36.3464
3.9981	36.4099
3.9796	36.4341
3.9614	36.3956
3.9433	36.423
3.9254	36.1708
3.9077	36.1479
3.8901	35.8667
3.8726	35.5956
3.8554	35.2589
3.8382	34.9943
3.8213	34.6109
3.8045	34.1111
3.7878	33.6357
3.7713	33.0536
3.7549	32.8691
3.7386	32.011
3.7225	31.589
3.7066	30.9309
3.6907	30.3955
3.675	29.8165
3.6595	29.1169
3.644	28.3599
3.6287	27.8327
3.6136	27.2763
3.5985	26.3697
3.5836	25.9192
3.5688	25.4893
3.5541	24.7544
3.5396	24.0827
3.5251	23.4164
3.5108	22.8518
3.4966	22.2082
3.4825	21.3445
3.4685	20.6484
3.4547	20.3663
3.4409	19.5788
3.4273	18.9006
3.4137	18.0905
3.4003	17.5896
3.387	17.072
3.3738	16.4809
3.3606	15.6812
3.3476	15.2988
3.3347	14.6299
3.3219	14.508
3.3092	14.0768
3.2965	13.1632
3.284	13.0996
3.2716	12.7504
3.2593	12.0496
3.247	11.8457
3.2348	11.4969
3.2228	10.7481
3.2108	10.5973
3.1989	10.4453
3.1871	9.95179
3.1754	10.1738
3.1638	9.32477
3.1523	9.60167
3.1408	8.67525
3.1294	8.84789
3.1181	8.33585
3.1069	8.43152
3.0958	8.43353
3.0848	8.34794
3.0738	7.84678
3.0629	7.24755
3.0521	7.56582
3.0413	7.41723
3.0307	7.61009
3.0201	7.21227
3.0096	7.12375
2.9991	7.11853
2.9887	7.14565
2.9784	7.12723
2.9682	7.13693
2.9581	6.76656
2.948	6.91537
2.9379	6.5183
2.928	7.12741
2.9181	7.31048
2.9083	6.40425
2.8985	6.96684
2.8888	7.45721
2.8792	7.25178
2.8697	7.87132
2.8602	7.86323
2.8507	7.95707
2.8413	8.37014
2.832	8.59583
2.8228	9.14316
2.8136	9.89293
2.8045	9.59198
2.7954	9.63055
2.7864	9.70973
2.7774	10.0025
2.7685	10.9664
2.7597	11.2173
2.7509	11.206
2.7422	11.8086
2.7335	12.5401
2.7249	14.4673
2.7163	17.5293
2.7078	21.6314
2.6994	27.5209
2.691	33.7314
2.6826	39.1256
2.6743	42.6952
2.666	48.7836
2.6578	51.0308
2.6497	52.6823
2.6416	54.557
2.6336	55.4641
2.6256	56.3948
2.6176	57.4796
2.6097	57.9561
2.6018	58.2197
2.594	60.0183
2.5863	59.4022
2.5785	59.8127
2.5709	60.3056
2.5633	60.7245
2.5557	60.4032
2.5481	61.3831
2.5406	61.067
2.5332	61.5001
2.5258	62.1502
2.5184	61.8881
2.5111	62.4893
2.5038	62.6846
2.4966	63.4448
2.4894	63.8946
2.4823	64.118
2.4752	64.561
2.4681	65.1163
2.4611	65.6986
2.4541	66.8153
2.4471	67.1747
2.4402	67.8738
2.4333	68.4169
2.4265	69.6458
2.4197	69.2936
2.413	69.8346
2.4063	70.6715
2.3996	71.5182
2.3929	71.3211
2.3863	72.062
2.3798	72.3738
2.3732	72.5758
2.3667	72.2457
2.3603	72.9308
2.3538	73.1718
2.3474	72.9475
2.3411	72.9299
2.3347	73.1148
2.3285	73.2225
2.3222	72.3079
2.316	72.4883
2.3098	73.1319
2.3036	72.5498
2.2975	72.2701
2.2914	71.6686
2.2854	72.0757
2.2793	72.5276
2.2733	72.0688
2.2674	71.7543
2.2614	72.0074
2.2555	71.2807
2.2497	71.868
2.2438	72.0601
2.238	71.8291
2.2322	71.9788
2.2265	72.9109
2.2208	72.0468
2.2151	71.7997
2.2094	72.6899
2.2038	73.4958
2.1982	74.6091
2.1926	75.0942
2.187	75.3458
2.1815	76.2566
2.176	76.7391
2.1706	77.8897
2.1651	77.7766
2.1597	78.2467
2.1543	78.7684
2.149	78.0368
2.1436	79.4659
2.1383	79.1174
2.1331	79.6431
2.1278	79.7344
2.1226	78.9147
2.1174	80.0322
2.1122	78.7859
2.1071	79.2566
2.1019	78.9555
2.0968	79.0041
2.0918	78.4374
2.0867	78.421
2.0817	78.5771
2.0767	79.4768
2.0717	78.8867
2.0667	78.7137
2.0618	78.716
2.0569	77.5194
2.052	77.3165
2.0472	79.4796
2.0423	77.8289
2.0375	77.9881
2.0327	77.3381
2.028	76.614
2.0232	78.7021
2.0185	77.6932
2.0138	77.3898
2.0091	76.8361
2.0044	76.3179
1.9998	75.5615
