Name: Quartz SiO_2
Type: Mineral
Class: Silicates
Subclass: Tectosilicates
Particle Size: 125-500um
Sample No.: TS-1C
Owner: JPL
Wavelength Range: VNIR-SWIR
Origin: USA, South Dakota, Custer County, Custer
Description: Rose quartz.
Measurement: Hemispherical reflectance
X Units: Wavelength (micrometers)
Y Units: Reflectance (percent)
wavelength	value
0.4	73.74
0.403	73.73
0.406	73.64
0.409	73.77
0.412	73.74
0.415	73.39
0.418	73.35
0.421	73.25
0.424	73.07
0.427	73.02
0.43	72.94
0.433	72.64
0.436	72.66
0.439	72.51
0.442	72.19
0.445	72.05
0.448	72.03
0.451	71.91
0.454	71.62
0.457	71.6
0.46	71.58
0.463	71.45
0.466	71.39
0.469	71.19
0.472	71.1
0.475	71.04
0.478	71.11
0.481	70.96
0.484	70.98
0.487	71.07
0.49	70.97
0.493	71.07
0.496	70.97
0.499	71.02
0.502	71.19
0.505	71.4
0.508	71.38
0.511	71.53
0.514	71.77
0.517	71.82
0.52	71.94
0.523	72.11
0.526	72.25
0.529	72.23
0.532	72.65
0.535	72.74
0.538	72.91
0.541	73.18
0.544	73.36
0.547	73.5
0.55	73.77
0.553	74.09
0.556	74.21
0.559	74.38
0.562	74.91
0.565	75.13
0.568	75.3
0.571	75.17
0.574	75.09
0.577	75.39
0.58	75.43
0.583	75.55
0.586	75.78
0.589	76.01
0.592	76.04
0.595	76.16
0.598	76.41
0.601	76.68
0.604	76.52
0.607	76.6
0.61	76.71
0.613	76.78
0.616	76.75
0.619	76.91
0.622	76.96
0.625	76.79
0.628	77.06
0.631	77.09
0.634	77.08
0.637	77.04
0.64	77.24
0.643	77.22
0.646	77.16
0.649	77.28
0.652	77.37
0.655	77.25
0.658	77.29
0.661	77.48
0.664	77.39
0.667	77.54
0.67	77.48
0.673	77.49
0.676	77.48
0.679	77.63
0.682	77.73
0.685	77.75
0.688	77.55
0.691	77.79
0.694	77.72
0.697	77.75
0.7	77.71
0.703	77.79
0.706	77.81
0.709	77.81
0.712	77.71
0.715	77.76
0.718	77.97
0.721	77.87
0.724	77.83
0.727	78.01
0.73	77.96
0.733	77.83
0.736	78.07
0.739	78.07
0.742	78.01
0.745	78.05
0.748	77.96
0.751	78
0.754	77.93
0.757	78.11
0.76	77.85
0.763	78.01
0.766	78.14
0.769	78.19
0.772	78.03
0.775	78.09
0.778	78.26
0.781	78.16
0.784	78.05
0.787	78.23
0.79	78.32
0.793	78.24
0.796	78.31
0.799	78.39
0.808	78.28
0.82	78.34
0.832	78.4
0.844	78.59
0.856	78.75
0.868	78.8
0.88	78.74
0.892	78.75
0.904	78.75
0.916	78.77
0.928	78.92
0.94	78.97
0.952	78.94
0.964	79.01
0.976	79.04
0.988	78.96
1	79.03
1.012	79.06
1.024	79.09
1.036	79.18
1.048	79.17
1.06	79.15
1.072	79.17
1.084	79.24
1.096	79.23
1.108	79.23
1.12	79.25
1.132	79.33
1.144	79.28
1.156	79.26
1.168	79.31
1.18	79.27
1.192	79.24
1.204	79.32
1.216	79.27
1.228	79.4
1.24	79.37
1.252	79.4
1.264	79.48
1.276	79.42
1.288	79.56
1.3	79.37
1.312	79.31
1.324	79.32
1.336	79.26
1.348	79.33
1.36	79.31
1.372	79.26
1.384	79.12
1.396	78.99
1.408	78.87
1.42	78.8
1.432	78.82
1.444	78.88
1.456	78.94
1.468	78.92
1.48	78.96
1.492	79.22
1.504	79.19
1.516	79.21
1.528	79.27
1.54	79.32
1.552	79.34
1.564	79.42
1.576	79.37
1.588	79.39
1.6	79.43
1.612	79.5
1.624	79.42
1.636	79.53
1.648	79.61
1.66	79.61
1.672	79.7
1.684	79.68
1.696	79.73
1.708	79.78
1.72	79.83
1.732	79.76
1.744	79.63
1.756	79.63
1.768	79.69
1.78	79.65
1.792	79.69
1.804	79.71
1.816	79.67
1.828	79.69
1.84	79.65
1.852	79.66
1.864	79.45
1.876	79.17
1.888	78.68
1.9	77.99
1.912	77.51
1.924	77.3
1.936	77.3
1.948	77.45
1.96	77.63
1.972	77.99
1.984	78.3
1.996	78.73
2.008	79.02
2.02	79.32
2.032	79.43
2.044	79.58
2.056	79.71
2.068	79.81
2.08	79.94
2.092	80.09
2.104	80.24
2.116	80.54
2.128	80.55
2.14	80.54
2.152	80.24
2.164	80.06
2.176	79.75
2.188	79.54
2.2	79.53
2.212	79.5
2.224	79.7
2.236	79.75
2.248	79.9
2.26	79.99
2.272	79.96
2.284	79.94
2.296	79.76
2.308	79.91
2.32	79.96
2.332	79.89
2.344	79.9
2.356	79.81
2.368	79.64
2.38	79.69
2.392	79.42
2.404	79.6
2.416	79.45
2.428	79.21
2.44	79.15
2.452	78.91
2.464	78.78
2.476	78.65
2.488	78.97
2.5	79.08
