Name: Lepidolite K(Li,Al)3(Si,Al)_4O_10(F,OH)_2
Type: Mineral
Class: Silicates
Subclass: Phyllosilicates
Particle Size: 125-500um
Sample No.: PS-13A
Owner: JPL
Origin: USA, South Dakota.
Description: Yellow lepidolite.
Measurement: Hemispherical reflectance
X Units: Wavelength (micrometers)
Y Units: Reflectance (percent)
wavelength	value
2.5	25.9195
2.494	24.823
2.488	24.2845
2.482	23.7383
2.476	23.3221
2.47	22.8991
2.464	22.3502
2.458	21.6051
2.452	21.0228
2.446	20.5257
2.44	20.2891
2.434	20.3489
2.428	20.7894
2.422	21.6934
2.416	22.8291
2.41	24.2489
2.404	25.5849
2.398	26.5903
2.392	27.1427
2.386	27.4682
2.38	27.5746
2.374	27.4442
2.368	27.3032
2.362	26.7158
2.356	26.0086
2.35	25.3818
2.344	25.3477
2.338	26.1898
2.332	27.7426
2.326	29.9856
2.32	32.5718
2.314	35.4404
2.308	38.2267
2.302	40.9791
2.296	43.5524
2.29	45.5641
2.284	46.9427
2.278	47.9385
2.272	48.4136
2.266	48.6833
2.26	48.5678
2.254	48.235
2.248	47.7291
2.242	47.0752
2.236	45.8263
2.23	43.808
2.224	40.0993
2.218	34.7484
2.212	28.6944
2.206	23.1469
2.2	19.5529
2.194	18.6506
2.188	20.6617
2.182	25.6239
2.176	32.1745
2.17	38.9244
2.164	44.4735
2.158	48.6
2.152	51.6474
2.146	53.8607
2.14	55.3214
2.134	55.7629
2.128	55.568
2.122	55.2086
2.116	55.4417
2.11	56.5474
2.104	58.0825
2.098	60.2103
2.092	62.6207
2.086	64.8775
2.08	66.5666
2.074	67.7261
2.068	68.4816
2.062	69.1718
2.056	69.5114
2.05	69.8937
2.044	70.3099
2.038	70.719
2.032	71.1852
2.026	71.5164
2.02	71.7368
2.014	71.9317
2.008	72.1418
2.002	72.1584
1.996	72.4148
1.99	72.5695
1.984	72.7559
1.978	73.0441
1.972	73.4492
1.966	73.7767
1.96	74.1594
1.954	74.5273
1.948	74.8456
1.942	75.2275
1.936	75.4404
1.93	75.5864
1.924	75.7664
1.918	75.9035
1.912	76.1641
1.906	76.4365
1.9	77.1913
1.894	77.9778
1.888	78.5029
1.882	78.8625
1.876	79.0991
1.87	79.47
1.864	79.5062
1.858	79.3747
1.852	78.8469
1.846	78.1287
1.84	77.6448
1.834	77.6701
1.828	78.3083
1.822	79.0684
1.816	79.8481
1.81	80.3445
1.804	80.5761
1.798	80.7573
1.792	80.8404
1.786	80.815
1.78	80.615
1.774	80.4977
1.768	80.5514
1.762	80.6734
1.756	80.7892
1.75	81.0107
1.744	81.1944
1.738	81.3642
1.732	81.3853
1.726	81.3707
1.72	81.4645
1.714	81.4611
1.708	81.4135
1.702	81.4736
1.696	81.3818
1.69	81.3567
1.684	81.4578
1.678	81.421
1.672	81.3299
1.666	81.3072
1.66	81.2377
1.654	81.2569
1.648	81.208
1.642	81.0682
1.636	81.1631
1.63	81.0769
1.624	81.0967
1.618	81.0424
1.612	80.9502
1.606	80.9895
1.6	80.9241
1.594	80.7724
1.588	80.611
1.582	80.5101
1.576	80.3377
1.57	80.1453
1.564	79.8696
1.558	79.787
1.552	79.6803
1.546	79.4312
1.54	79.203
1.534	79.0889
1.528	78.8818
1.522	78.6142
1.516	78.3526
1.51	78.1472
1.504	77.8752
1.498	77.5821
1.492	77.3281
1.486	77.0723
1.48	76.7806
1.474	76.4668
1.468	76.0785
1.462	75.446
1.456	74.6763
1.45	73.7092
1.444	72.6963
1.438	70.9003
1.432	66.433
1.426	56.7162
1.42	42.3085
1.414	30.0825
1.408	30.1475
1.402	34.447
1.396	45.6754
1.39	61.2468
1.384	66.6059
1.378	67.4264
1.372	67.8317
1.366	68.3417
1.36	68.9527
1.354	68.9691
1.348	68.5849
1.342	67.9763
1.336	67.1443
1.33	66.6195
1.324	66.2974
1.318	65.9466
1.312	65.8963
1.306	65.9207
1.3	65.8107
1.294	65.7696
1.288	65.8045
1.282	65.7794
1.276	65.6443
1.27	65.4401
1.264	65.2059
1.258	64.8441
1.252	64.238
1.246	63.9824
1.24	64.0395
1.234	64.1045
1.228	63.9982
1.222	63.8867
1.216	63.8113
1.21	63.7061
1.204	63.6713
1.198	63.5465
1.192	63.5782
1.186	63.519
1.18	63.5561
1.174	63.4994
1.168	63.579
1.162	63.6338
1.156	63.7479
1.15	63.9942
1.144	64.0689
1.138	64.2233
1.132	64.3999
1.126	64.5559
1.12	64.7817
1.114	65.0168
1.108	65.1897
1.102	65.5122
1.096	65.7194
1.09	65.9573
1.084	66.2432
1.078	66.4517
1.072	66.6833
1.066	66.8978
1.06	67.0765
1.054	67.2877
1.048	67.3996
1.042	67.5304
1.036	67.5556
1.03	67.5563
1.024	67.4911
1.018	67.3599
1.012	67.2575
1.006	66.9896
1	66.7931
0.994	66.4466
0.988	66.0085
0.982	65.592
0.976	64.7581
0.97	63.1231
0.964	61.4371
0.958	61.8631
0.952	62.8377
0.946	63.1987
0.94	62.9855
0.934	62.8515
0.928	62.5756
0.922	62.5134
0.916	62.3735
0.91	62.3816
0.904	62.4315
0.898	62.5846
0.892	62.727
0.886	62.9479
0.88	63.1215
0.874	63.4664
0.868	63.7887
0.862	64.1822
0.856	64.9926
0.85	65.5075
0.844	66.0538
0.838	66.6873
0.832	67.2337
0.826	67.8238
0.82	68.4971
0.814	69.0779
0.808	69.7284
0.802	70.344
0.796	70.9286
0.79	71.5015
0.784	72.1032
0.778	72.5007
0.772	73.0469
0.766	73.4406
0.76	73.8431
0.754	74.1723
0.748	74.373
0.742	74.4598
0.736	74.6718
0.73	74.9198
0.724	75.0432
0.718	75.1104
0.712	75.073
0.706	75.0474
0.7	75.0187
0.694	74.916
0.688	74.788
0.682	74.673
0.676	74.4854
0.67	74.294
0.664	74.0751
0.658	73.8588
0.652	73.5998
0.646	73.3179
0.64	73.0374
0.634	72.7217
0.628	72.4138
0.622	72.103
0.616	71.7602
0.61	71.4405
0.604	71.1191
0.598	70.8669
0.592	70.6625
0.586	70.3895
0.58	70.1427
0.574	69.9069
0.568	69.6817
0.562	69.422
0.556	69.1194
0.55	68.7845
0.544	68.3429
0.538	67.841
0.532	67.2705
0.526	66.5955
0.52	65.7823
0.514	64.7701
0.508	63.6385
0.502	62.4387
0.496	61.1223
0.49	59.5625
0.484	57.7098
0.478	55.8287
0.472	53.7961
0.466	51.5821
0.46	49.1414
0.454	46.4523
0.448	43.5
0.442	40.2837
0.436	37.3304
0.43	34.4613
0.424	31.7163
0.418	29.0175
0.412	26.4383
0.406	24.0183
0.4	21.7681
