Name: Epidote Ca_2(Al,Fe^3+)_3O.SiO_4.Si_2O_7.OH
Type: Mineral
Class: Silicates
Subclass: Sorosilicate
Particle Size: 125-500um
Sample No.: SS-1C
Owner: JPL
Wavelength Range: VNIR-SWIR
Origin: USA, Colorado
Measurement: Hemispherical reflectance
X Units: Wavelength (micrometers)
Y Units: Reflectance (percent)
wavelength	value
0.4	5.26
0.403	5.44
0.406	5.54
0.409	5.61
0.412	5.68
0.415	5.91
0.418	6.27
0.421	6.56
0.424	6.73
0.427	7.15
0.43	7.52
0.433	8.11
0.436	8.6
0.439	8.64
0.442	8.8
0.445	8.8
0.448	8.63
0.451	8.17
0.454	7.86
0.457	8.15
0.46	8.38
0.463	8.5
0.466	8.25
0.469	8.03
0.472	8.03
0.475	8.38
0.478	8.85
0.481	9.38
0.484	10.13
0.487	10.91
0.49	11.56
0.493	12.36
0.496	13.12
0.499	13.72
0.502	14.33
0.505	14.78
0.508	15.3
0.511	15.78
0.514	16.19
0.517	16.5
0.52	16.74
0.523	17.09
0.526	17.29
0.529	17.55
0.532	17.58
0.535	17.71
0.538	17.9
0.541	17.98
0.544	18
0.547	17.96
0.55	17.83
0.553	17.91
0.556	17.83
0.559	17.81
0.562	17.84
0.565	17.73
0.568	17.71
0.571	17.72
0.574	17.62
0.577	17.56
0.58	17.45
0.583	17.41
0.586	17.42
0.589	17.43
0.592	17.3
0.595	17.35
0.598	17.39
0.601	17.56
0.604	17.61
0.607	17.6
0.61	17.72
0.613	17.81
0.616	17.78
0.619	17.84
0.622	17.93
0.625	18.07
0.628	18.12
0.631	18.41
0.634	18.55
0.637	18.78
0.64	18.87
0.643	19.1
0.646	19.35
0.649	19.66
0.652	19.96
0.655	20.17
0.658	20.43
0.661	20.72
0.664	21.09
0.667	21.32
0.67	21.59
0.673	21.82
0.676	22.14
0.679	22.43
0.682	22.68
0.685	23.07
0.688	23.26
0.691	23.52
0.694	23.72
0.697	24.09
0.7	24.15
0.703	24.46
0.706	24.82
0.709	25.04
0.712	25.22
0.715	25.59
0.718	25.6
0.721	25.78
0.724	25.99
0.727	26.03
0.73	26.23
0.733	26.37
0.736	26.34
0.739	26.46
0.742	26.49
0.745	26.76
0.748	26.85
0.751	26.82
0.754	26.83
0.757	26.77
0.76	27.01
0.763	26.97
0.766	27.06
0.769	26.93
0.772	27.01
0.775	27.12
0.778	27.08
0.781	27.05
0.784	26.99
0.787	26.94
0.79	27.08
0.793	27.15
0.796	27.09
0.799	26.98
0.808	27.57
0.82	27.59
0.832	27.73
0.844	28.18
0.856	28.71
0.868	29.22
0.88	29.58
0.892	29.99
0.904	30.31
0.916	30.39
0.928	30.37
0.94	30.29
0.952	30.11
0.964	29.83
0.976	29.68
0.988	29.55
1	29.34
1.012	29.23
1.024	29.2
1.036	29.15
1.048	29.41
1.06	29.62
1.072	30.02
1.084	30.46
1.096	31.28
1.108	32.13
1.12	32.93
1.132	33.97
1.144	35.17
1.156	36.31
1.168	37.49
1.18	38.79
1.192	40.34
1.204	41.73
1.216	42.95
1.228	44.12
1.24	45.22
1.252	46.07
1.264	46.72
1.276	47.28
1.288	47.81
1.3	48.21
1.312	48.37
1.324	48.67
1.336	48.95
1.348	49.33
1.36	49.65
1.372	49.91
1.384	49.5
1.396	48.45
1.408	49.18
1.42	49.56
1.432	49.65
1.444	49.88
1.456	49.98
1.468	49.96
1.48	49.71
1.492	49.13
1.504	48.51
1.516	47.26
1.528	46.29
1.54	45.41
1.552	45.79
1.564	47.26
1.576	48.23
1.588	49.16
1.6	49.88
1.612	50.32
1.624	50.72
1.636	51.05
1.648	51.32
1.66	51.67
1.672	51.96
1.684	52.16
1.696	52.53
1.708	52.86
1.72	53.21
1.732	53.53
1.744	53.71
1.756	53.94
1.768	54.24
1.78	54.66
1.792	54.89
1.804	54.9
1.816	54.11
1.828	53.34
1.84	54.32
1.852	55.5
1.864	55.76
1.876	55.13
1.888	54.3
1.9	52.93
1.912	52.31
1.924	52.84
1.936	53
1.948	53.25
1.96	54.34
1.972	55.76
1.984	56.99
1.996	57.68
2.008	58.42
2.02	59.19
2.032	59.71
2.044	60.25
2.056	60.67
2.068	61.06
2.08	61.37
2.092	61.46
2.104	61.41
2.116	61.43
2.128	61.38
2.14	61.38
2.152	61.01
2.164	60.41
2.176	59.47
2.188	58.37
2.2	57.17
2.212	55.34
2.224	51.26
2.236	44.28
2.248	38.36
2.26	37.69
2.272	38.41
2.284	36.26
2.296	31.15
2.308	24.49
2.32	19.57
2.332	17.36
2.344	19.41
2.356	26.5
2.368	35.31
2.38	42.07
2.392	46.3
2.404	48.83
2.416	50.38
2.428	50.89
2.44	50.41
2.452	49.46
2.464	48.29
2.476	47.18
2.488	46.01
2.5	44.91
