Name: Clinochlore (Chlorite) (Mg,Al)_6(Si,Al)_4O_10(OH)_8
Type: Mineral
Class: Silicates
Subclass: Phyllosilicates
Particle Size: 125-500um
Sample No.: PS-12A
Owner: JPL
Origin: USA, California, El Dorado County, Flagstaff Hill.
Measurement: Hemispherical reflectance
X Units: Wavelength (micrometers)
Y Units: Reflectance (percent)
wavelength	value
2.5	21.3373
2.494	21.0943
2.488	21.1533
2.482	21.4883
2.476	21.8791
2.47	22.2258
2.464	22.6261
2.458	23.0884
2.452	23.7417
2.446	23.8642
2.44	24.1834
2.434	24.3402
2.428	24.5011
2.422	24.5025
2.416	24.3922
2.41	24.2375
2.404	24.0149
2.398	23.7607
2.392	23.5154
2.386	23.1478
2.38	22.4753
2.374	21.6889
2.368	20.7205
2.362	19.6823
2.356	18.9328
2.35	18.4364
2.344	18.193
2.338	18.3941
2.332	18.7851
2.326	19.3172
2.32	19.7056
2.314	20.2707
2.308	20.6376
2.302	21.0282
2.296	21.6442
2.29	22.2601
2.284	22.73
2.278	22.9091
2.272	22.7397
2.266	22.0934
2.26	21.4094
2.254	21.1881
2.248	21.8086
2.242	23.6399
2.236	26.0027
2.23	28.0158
2.224	29.4112
2.218	30.3861
2.212	30.9175
2.206	31.3346
2.2	31.8041
2.194	32.0804
2.188	32.3204
2.182	32.5946
2.176	32.8373
2.17	32.8765
2.164	32.9389
2.158	33.1072
2.152	33.1785
2.146	33.0718
2.14	32.9856
2.134	32.8596
2.128	32.5963
2.122	32.4312
2.116	32.2946
2.11	32.2501
2.104	32.1114
2.098	31.9998
2.092	31.9448
2.086	31.7368
2.08	31.5861
2.074	31.3602
2.068	31.081
2.062	30.8863
2.056	30.5593
2.05	30.1942
2.044	29.8444
2.038	29.3682
2.032	28.8869
2.026	28.3251
2.02	27.7456
2.014	27.2804
2.008	26.9611
2.002	26.7796
1.996	26.7462
1.99	26.6617
1.984	26.7709
1.978	26.8246
1.972	27.0077
1.966	27.0266
1.96	26.9588
1.954	26.7777
1.948	26.9928
1.942	26.9795
1.936	27.124
1.93	27.0636
1.924	26.8787
1.918	26.6916
1.912	26.5963
1.906	26.4295
1.9	26.1783
1.894	26.1073
1.888	25.8628
1.882	25.6318
1.876	25.5658
1.87	25.6234
1.864	25.5657
1.858	25.5326
1.852	25.4791
1.846	25.3581
1.84	25.2995
1.834	25.1024
1.828	24.9503
1.822	24.8221
1.816	24.6636
1.81	24.5395
1.804	24.4173
1.798	24.2676
1.792	23.9988
1.786	23.8469
1.78	23.645
1.774	23.4931
1.768	23.2688
1.762	23.0977
1.756	22.8734
1.75	22.7268
1.744	22.5489
1.738	22.366
1.732	22.1185
1.726	21.9391
1.72	21.7916
1.714	21.5567
1.708	21.3075
1.702	21.136
1.696	20.9085
1.69	20.7536
1.684	20.4938
1.678	20.2985
1.672	20.1189
1.666	19.9197
1.66	19.6635
1.654	19.5197
1.648	19.2799
1.642	19.0449
1.636	18.8827
1.63	18.5833
1.624	18.3438
1.618	18.2429
1.612	17.9813
1.606	17.8163
1.6	17.5194
1.594	17.3576
1.588	17.1336
1.582	17.0634
1.576	16.7115
1.57	16.6157
1.564	16.4233
1.558	16.2409
1.552	16.0351
1.546	15.8574
1.54	15.7201
1.534	15.595
1.528	15.4287
1.522	15.2976
1.516	15.1919
1.51	15.0662
1.504	14.9004
1.498	14.7657
1.492	14.6071
1.486	14.4728
1.48	14.293
1.474	14.1684
1.468	14.05
1.462	13.7572
1.456	13.5774
1.45	13.4802
1.444	13.295
1.438	13.111
1.432	13.1775
1.426	13.0034
1.42	12.7597
1.414	12.3098
1.408	12.0542
1.402	11.9154
1.396	11.9969
1.39	12.257
1.384	12.281
1.378	12.068
1.372	11.9592
1.366	11.8729
1.36	11.654
1.354	11.544
1.348	11.3665
1.342	11.2152
1.336	11.1215
1.33	10.989
1.324	10.8633
1.318	10.7152
1.312	10.5359
1.306	10.4794
1.3	10.3958
1.294	10.2048
1.288	10.0938
1.282	10.0052
1.276	9.82951
1.27	9.74464
1.264	9.60427
1.258	9.55771
1.252	9.33333
1.246	9.27548
1.24	9.20516
1.234	9.10565
1.228	9.02332
1.222	8.88828
1.216	8.80692
1.21	8.69667
1.204	8.7066
1.198	8.53017
1.192	8.48727
1.186	8.40882
1.18	8.29201
1.174	8.21631
1.168	8.1859
1.162	8.14708
1.156	8.05354
1.15	8.06598
1.144	7.98853
1.138	8.02182
1.132	7.88747
1.126	7.89466
1.12	7.83592
1.114	7.86985
1.108	7.8497
1.102	7.85965
1.096	7.80258
1.09	7.79931
1.084	7.84239
1.078	7.74911
1.072	7.82349
1.066	7.84684
1.06	7.82001
1.054	7.8407
1.048	7.81832
1.042	7.76312
1.036	7.8256
1.03	7.74674
1.024	7.68719
1.018	7.85279
1.012	7.76724
1.006	7.7195
1	7.7588
0.994	7.67829
0.988	7.66
0.982	7.59271
0.976	7.52366
0.97	7.49622
0.964	7.47261
0.958	7.43361
0.952	7.27443
0.946	7.28113
0.94	7.26081
0.934	7.17837
0.928	7.15767
0.922	7.14976
0.916	7.1129
0.91	7.06962
0.904	7.09587
0.898	7.16567
0.892	7.16378
0.886	7.15864
0.88	7.17573
0.874	7.20682
0.868	7.27129
0.862	7.34491
0.856	7.82306
0.85	7.85237
0.844	7.89379
0.838	7.95299
0.832	7.991
0.826	8.02522
0.82	8.06251
0.814	8.07391
0.808	8.07815
0.802	8.07551
0.796	8.02712
0.79	7.98786
0.784	7.92962
0.778	7.87593
0.772	7.79883
0.766	7.73654
0.76	7.67135
0.754	7.60726
0.748	7.56025
0.742	7.51807
0.736	7.47971
0.73	7.46332
0.724	7.44684
0.718	7.45145
0.712	7.47145
0.706	7.49273
0.7	7.54066
0.694	7.59331
0.688	7.65962
0.682	7.7329
0.676	7.82286
0.67	7.91854
0.664	8.02937
0.658	8.13966
0.652	8.26083
0.646	8.39022
0.64	8.52403
0.634	8.66796
0.628	8.79382
0.622	8.94543
0.616	9.10248
0.61	9.25738
0.604	9.42238
0.598	9.58849
0.592	9.75427
0.586	9.91164
0.58	10.0611
0.574	10.2012
0.568	10.3266
0.562	10.4362
0.556	10.5247
0.55	10.587
0.544	10.6254
0.538	10.6453
0.532	10.6729
0.526	10.708
0.52	10.7299
0.514	10.7063
0.508	10.6301
0.502	10.4736
0.496	10.2704
0.49	10.2783
0.484	10.1487
0.478	9.9353
0.472	9.69696
0.466	9.49537
0.46	9.35348
0.454	9.26332
0.448	9.23924
0.442	9.1786
0.436	9.04045
0.43	8.87128
0.424	8.68149
0.418	8.4927
0.412	8.34208
0.406	8.26627
0.4	8.25599
