Name: Hematite alpha Fe_2O_3
Type: Mineral
Class: Oxides
Particle Size: 45-125um
Sample No.: O-1A
Owner: JPL
Origin: USA, Alabama, Birmingham.
Measurement: Hemispherical reflectance
X Units: Wavelength (micrometers)
Y Units: Reflectance (percent)
wavelength	value
2.5	10.2159
2.494	10.2303
2.488	10.3842
2.482	10.3308
2.476	10.3945
2.47	10.3006
2.464	10.4546
2.458	10.3867
2.452	10.3518
2.446	10.3714
2.44	10.4052
2.434	10.3283
2.428	10.4853
2.422	10.3767
2.416	10.3423
2.41	10.3567
2.404	10.357
2.398	10.2993
2.392	10.3502
2.386	10.3822
2.38	10.3893
2.374	10.3584
2.368	10.3524
2.362	10.3501
2.356	10.3381
2.35	10.3653
2.344	10.2433
2.338	10.2974
2.332	10.2782
2.326	10.285
2.32	10.2451
2.314	10.2071
2.308	10.2402
2.302	10.2408
2.296	10.2468
2.29	10.2157
2.284	10.2374
2.278	10.2058
2.272	10.1829
2.266	10.1398
2.26	10.1258
2.254	10.1368
2.248	10.1566
2.242	10.0833
2.236	10.1637
2.23	10.0732
2.224	10.078
2.218	10.2437
2.212	10.1738
2.206	10.093
2.2	10.1042
2.194	10.0972
2.188	10.1221
2.182	10.1838
2.176	10.1768
2.17	10.1594
2.164	10.1845
2.158	10.2353
2.152	10.2366
2.146	10.1495
2.14	10.2308
2.134	10.1151
2.128	10.0803
2.122	10.1474
2.116	10.0801
2.11	10.0083
2.104	9.99361
2.098	9.9854
2.092	9.94776
2.086	9.97203
2.08	9.97826
2.074	9.96482
2.068	9.99494
2.062	9.90735
2.056	9.94028
2.05	10.0267
2.044	9.96792
2.038	9.99368
2.032	9.99866
2.026	9.99748
2.02	9.94978
2.014	9.97001
2.008	9.97713
2.002	9.97539
1.996	9.88597
1.99	9.89931
1.984	9.84847
1.978	9.87246
1.972	9.84403
1.966	9.83248
1.96	9.86834
1.954	9.86796
1.948	9.87172
1.942	9.82541
1.936	9.89047
1.93	9.9127
1.924	9.82999
1.918	9.89305
1.912	9.94643
1.906	9.83734
1.9	9.76832
1.894	9.73985
1.888	9.87916
1.882	9.91446
1.876	9.87363
1.87	9.7997
1.864	9.86395
1.858	9.83695
1.852	9.92457
1.846	9.86534
1.84	9.87683
1.834	9.85851
1.828	9.85249
1.822	9.80396
1.816	9.82676
1.81	9.77651
1.804	9.82337
1.798	9.78729
1.792	9.82559
1.786	9.85343
1.78	9.78884
1.774	9.83648
1.768	9.74907
1.762	9.77828
1.756	9.85182
1.75	9.79059
1.744	9.78424
1.738	9.73053
1.732	9.79024
1.726	9.73639
1.72	9.77535
1.714	9.79553
1.708	9.76079
1.702	9.78411
1.696	9.7987
1.69	9.77144
1.684	9.80016
1.678	9.78128
1.672	9.76953
1.666	9.8565
1.66	9.73105
1.654	9.81051
1.648	9.73005
1.642	9.8555
1.636	9.70451
1.63	9.7552
1.624	9.75798
1.618	9.82971
1.612	9.76869
1.606	9.91825
1.6	9.83606
1.594	9.83456
1.588	9.84014
1.582	9.82538
1.576	9.86514
1.57	9.90461
1.564	9.87613
1.558	9.89872
1.552	9.93728
1.546	9.88837
1.54	9.92542
1.534	9.97096
1.528	9.97074
1.522	9.98247
1.516	10.0407
1.51	9.98057
1.504	9.95033
1.498	9.99685
1.492	10.0165
1.486	10.0534
1.48	10.1046
1.474	10.1198
1.468	10.148
1.462	10.1306
1.456	10.1286
1.45	10.1202
1.444	10.1617
1.438	10.1948
1.432	10.2031
1.426	10.2365
1.42	10.2649
1.414	10.1858
1.408	10.2532
1.402	10.312
1.396	10.4505
1.39	10.4226
1.384	10.4221
1.378	10.4363
1.372	10.4656
1.366	10.5846
1.36	10.5329
1.354	10.5629
1.348	10.6036
1.342	10.5925
1.336	10.6296
1.33	10.6315
1.324	10.6691
1.318	10.7374
1.312	10.7592
1.306	10.7717
1.3	10.7718
1.294	10.8801
1.288	10.8643
1.282	10.898
1.276	10.9459
1.27	10.9727
1.264	11.0432
1.258	11.1075
1.252	11.0766
1.246	11.1178
1.24	11.1197
1.234	11.202
1.228	11.2261
1.222	11.251
1.216	11.297
1.21	11.3731
1.204	11.42
1.198	11.4146
1.192	11.4667
1.186	11.5669
1.18	11.6264
1.174	11.5668
1.168	11.6781
1.162	11.6682
1.156	11.7573
1.15	11.7663
1.144	11.825
1.138	11.8228
1.132	11.8126
1.126	11.9327
1.12	11.9069
1.114	11.9725
1.108	12.0393
1.102	12.1845
1.096	11.997
1.09	12.094
1.084	12.1142
1.078	12.2069
1.072	12.145
1.066	12.1252
1.06	12.1807
1.054	12.2035
1.048	12.2502
1.042	12.2036
1.036	12.2504
1.03	12.1957
1.024	12.2209
1.018	12.1099
1.012	12.0445
1.006	11.9807
1	11.9839
0.994	11.7453
0.988	11.5991
0.982	11.481
0.976	11.3826
0.97	11.2368
0.964	11.1034
0.958	10.9384
0.952	10.7978
0.946	10.6612
0.94	10.5483
0.934	10.4109
0.928	10.2835
0.922	10.1666
0.916	10.1727
0.91	10.0565
0.904	9.98112
0.898	9.9766
0.892	9.94374
0.886	9.93444
0.88	9.80846
0.874	9.80581
0.868	9.7915
0.862	9.93396
0.856	10.1101
0.85	10.1406
0.844	10.1981
0.838	10.2544
0.832	10.3268
0.826	10.4196
0.82	10.5174
0.814	10.6357
0.808	10.7742
0.802	10.8941
0.796	11.0417
0.79	11.1954
0.784	11.3431
0.778	11.5
0.772	11.6329
0.766	11.7661
0.76	11.8696
0.754	11.9549
0.748	12.0113
0.742	12.0246
0.736	12.0081
0.73	11.9458
0.724	11.8564
0.718	11.7441
0.712	11.6036
0.706	11.4609
0.7	11.3174
0.694	11.1755
0.688	11.0438
0.682	10.9202
0.676	10.8183
0.67	10.7284
0.664	10.6497
0.658	10.589
0.652	10.539
0.646	10.5054
0.64	10.4847
0.634	10.4701
0.628	10.4549
0.622	10.4388
0.616	10.4002
0.61	10.3225
0.604	10.183
0.598	9.97414
0.592	9.67417
0.586	9.28495
0.58	8.83686
0.574	8.39444
0.568	7.96071
0.562	7.59204
0.556	7.29222
0.55	7.06447
0.544	6.89526
0.538	6.76423
0.532	6.66179
0.526	6.58301
0.52	6.53231
0.514	6.49702
0.508	6.48043
0.502	6.48339
0.496	6.49248
0.49	6.49868
0.484	6.51695
0.478	6.53012
0.472	6.56222
0.466	6.59891
0.46	6.64317
0.454	6.69436
0.448	6.74391
0.442	6.78049
0.436	6.79919
0.43	6.79273
0.424	6.77821
0.418	6.75663
0.412	6.73598
0.406	6.70576
0.4	6.68151
