Name: Forsterite Mg_2SiO_4
Type: Mineral
Class: Silicates
Subclass: Nesosilicates
Particle Size: 0-45um
Sample No.: NS-2A
Owner: JPL
Wavelength Range: VNIR-SWIR
Description: Synthetic forsterite.
Measurement: Hemispherical reflectance
X Units: Wavelength (micrometers)
Y Units: Reflectance (percent)
wavelength	value
0.4	56.18
0.403	56.32
0.406	56.53
0.409	56.52
0.412	56.42
0.415	56.51
0.418	56.6
0.421	56.77
0.424	56.58
0.427	56.61
0.43	56.76
0.433	56.72
0.436	56.66
0.439	56.83
0.442	56.89
0.445	57.07
0.448	57.02
0.451	56.89
0.454	56.99
0.457	57.09
0.46	57.09
0.463	56.85
0.466	56.88
0.469	56.95
0.472	57.06
0.475	57.08
0.478	57.22
0.481	57.22
0.484	57.46
0.487	57.53
0.49	57.21
0.493	57.39
0.496	57.41
0.499	57.39
0.502	57.39
0.505	57.27
0.508	57.43
0.511	57.44
0.514	57.29
0.517	57.32
0.52	57.54
0.523	57.61
0.526	57.5
0.529	57.35
0.532	57.55
0.535	57.36
0.538	57.25
0.541	57.53
0.544	57.57
0.547	57.7
0.55	57.57
0.553	57.54
0.556	57.84
0.559	57.61
0.562	58.01
0.565	57.94
0.568	57.65
0.571	57.74
0.574	57.64
0.577	57.62
0.58	57.44
0.583	57.35
0.586	57.61
0.589	57.6
0.592	57.45
0.595	57.56
0.598	57.58
0.601	57.8
0.604	57.67
0.607	57.52
0.61	57.89
0.613	57.75
0.616	57.62
0.619	57.55
0.622	57.59
0.625	57.74
0.628	57.68
0.631	57.51
0.634	57.84
0.637	57.52
0.64	57.53
0.643	57.47
0.646	57.66
0.649	57.68
0.652	57.56
0.655	57.6
0.658	57.72
0.661	57.61
0.664	57.59
0.667	57.64
0.67	57.66
0.673	57.69
0.676	57.51
0.679	57.64
0.682	57.65
0.685	57.64
0.688	57.68
0.691	57.63
0.694	57.71
0.697	57.67
0.7	57.59
0.703	57.53
0.706	57.61
0.709	57.78
0.712	57.7
0.715	57.58
0.718	57.67
0.721	57.69
0.724	57.66
0.727	57.53
0.73	57.75
0.733	57.78
0.736	57.68
0.739	57.59
0.742	57.7
0.745	57.7
0.748	57.58
0.751	57.58
0.754	57.64
0.757	57.73
0.76	57.66
0.763	57.54
0.766	57.65
0.769	57.69
0.772	57.5
0.775	57.56
0.778	57.71
0.781	57.66
0.784	57.61
0.787	57.6
0.79	57.69
0.793	57.72
0.796	57.53
0.799	57.79
0.808	58.01
0.82	58.1
0.832	58.04
0.844	58.01
0.856	58.06
0.868	58.13
0.88	58.11
0.892	58.07
0.904	58.03
0.916	57.98
0.928	58.03
0.94	57.93
0.952	57.94
0.964	57.92
0.976	57.91
0.988	57.97
1	57.89
1.012	57.96
1.024	57.91
1.036	57.93
1.048	57.99
1.06	57.93
1.072	57.98
1.084	57.95
1.096	57.94
1.108	57.94
1.12	57.97
1.132	57.99
1.144	57.99
1.156	57.84
1.168	57.86
1.18	57.88
1.192	57.81
1.204	57.89
1.216	57.73
1.228	57.71
1.24	57.83
1.252	57.89
1.264	57.88
1.276	57.88
1.288	57.78
1.3	57.7
1.312	57.7
1.324	57.61
1.336	57.69
1.348	57.74
1.36	57.69
1.372	57.72
1.384	57.75
1.396	57.59
1.408	57.58
1.42	57.56
1.432	57.65
1.444	57.73
1.456	57.7
1.468	57.8
1.48	57.65
1.492	57.66
1.504	57.66
1.516	57.68
1.528	57.58
1.54	57.61
1.552	57.56
1.564	57.55
1.576	57.62
1.588	57.6
1.6	57.66
1.612	57.63
1.624	57.62
1.636	57.61
1.648	57.58
1.66	57.59
1.672	57.52
1.684	57.61
1.696	57.61
1.708	57.56
1.72	57.64
1.732	57.66
1.744	57.54
1.756	57.53
1.768	57.48
1.78	57.41
1.792	57.43
1.804	57.49
1.816	57.45
1.828	57.47
1.84	57.42
1.852	57.4
1.864	57.36
1.876	57.31
1.888	57.28
1.9	57.21
1.912	57.32
1.924	57.29
1.936	57.29
1.948	57.23
1.96	57.15
1.972	57.26
1.984	57.31
1.996	57.27
2.008	57.34
2.02	57.41
2.032	57.35
2.044	57.48
2.056	57.43
2.068	57.55
2.08	57.56
2.092	57.65
2.104	57.75
2.116	57.8
2.128	57.84
2.14	57.69
2.152	57.6
2.164	57.44
2.176	57.44
2.188	57.32
2.2	57.42
2.212	57.27
2.224	57.33
2.236	57.3
2.248	57.27
2.26	57.2
2.272	57.22
2.284	57.23
2.296	57.38
2.308	57.47
2.32	57.63
2.332	57.58
2.344	57.59
2.356	57.5
2.368	57.41
2.38	57.44
2.392	57.42
2.404	57.43
2.416	57.59
2.428	57.51
2.44	57.51
2.452	57.44
2.464	57.38
2.476	57.29
2.488	57.53
2.5	57.65
