Name: Rhodonite (Mn,Ca)SiO_3
Type: Mineral
Class: Silicates
Subclass: Inosilicates
Particle Size: 45-125um
Sample No.: IN-1A
Owner: JPL
Wavelength Range: VNIR-SWIR
Origin: USA, California, Fresno County
Measurement: Hemispherical reflectance
X Units: Wavelength (micrometers)
Y Units: Reflectance (percent)
wavelength	value
0.4	30.5
0.403	28.84
0.406	25.81
0.409	24.49
0.412	25.15
0.415	25.96
0.418	27.85
0.421	28.38
0.424	29.14
0.427	29.8
0.43	30.17
0.433	31.06
0.436	31.92
0.439	32.67
0.442	33.25
0.445	33.8
0.448	34.32
0.451	34.55
0.454	34.71
0.457	35.07
0.46	35.48
0.463	36.01
0.466	36.32
0.469	36.66
0.472	37.09
0.475	37.31
0.478	37.46
0.481	37.69
0.484	38.1
0.487	38.3
0.49	38.42
0.493	38.57
0.496	38.78
0.499	38.58
0.502	38.63
0.505	38.64
0.508	38.37
0.511	38.17
0.514	38.08
0.517	37.89
0.52	37.62
0.523	37.39
0.526	37.26
0.529	37.08
0.532	36.9
0.535	36.92
0.538	37.13
0.541	37.32
0.544	37.33
0.547	37.89
0.55	38.52
0.553	38.93
0.556	39.62
0.559	40.17
0.562	41.46
0.565	42.3
0.568	43.16
0.571	44.01
0.574	44.89
0.577	45.86
0.58	46.88
0.583	47.62
0.586	48.5
0.589	49.47
0.592	50.23
0.595	50.93
0.598	51.57
0.601	52.43
0.604	53.12
0.607	53.48
0.61	53.94
0.613	54.36
0.616	54.91
0.619	55.12
0.622	55.47
0.625	55.76
0.628	56.23
0.631	56.53
0.634	56.79
0.637	57.04
0.64	57.28
0.643	57.66
0.646	57.88
0.649	57.89
0.652	58.29
0.655	58.46
0.658	58.6
0.661	58.73
0.664	59.09
0.667	59.2
0.67	59.32
0.673	59.5
0.676	59.87
0.679	59.88
0.682	60.08
0.685	60.28
0.688	60.37
0.691	60.44
0.694	60.57
0.697	60.8
0.7	60.75
0.703	61
0.706	61
0.709	61.17
0.712	61.34
0.715	61.38
0.718	61.46
0.721	61.51
0.724	61.61
0.727	61.8
0.73	61.86
0.733	62.11
0.736	61.99
0.739	62
0.742	62.27
0.745	62.2
0.748	62.26
0.751	62.33
0.754	62.47
0.757	62.35
0.76	62.54
0.763	62.49
0.766	62.41
0.769	62.45
0.772	62.68
0.775	62.45
0.778	62.47
0.781	62.51
0.784	62.32
0.787	62.24
0.79	62.24
0.793	62.09
0.796	61.94
0.799	61.96
0.808	61.05
0.82	59.74
0.832	58.17
0.844	56.09
0.856	53.65
0.868	50.88
0.88	48.04
0.892	45.21
0.904	42.24
0.916	39.43
0.928	36.82
0.94	34.36
0.952	32.11
0.964	30.14
0.976	28.46
0.988	27.11
1	26.1
1.012	25.15
1.024	24.64
1.036	24.34
1.048	24.29
1.06	24.49
1.072	25.15
1.084	25.83
1.096	26.69
1.108	27.75
1.12	28.89
1.132	30.2
1.144	31.5
1.156	32.82
1.168	34.21
1.18	35.77
1.192	37.32
1.204	38.9
1.216	40.39
1.228	41.85
1.24	43.27
1.252	44.74
1.264	46.15
1.276	47.44
1.288	48.56
1.3	49.53
1.312	50.51
1.324	51.36
1.336	51.99
1.348	52.59
1.36	52.98
1.372	53.4
1.384	53.74
1.396	53.69
1.408	53.64
1.42	53.96
1.432	54.15
1.444	54.28
1.456	54.33
1.468	54.46
1.48	54.62
1.492	54.6
1.504	54.75
1.516	54.88
1.528	55.02
1.54	55
1.552	55.16
1.564	55.38
1.576	55.57
1.588	55.75
1.6	56.01
1.612	56.23
1.624	56.53
1.636	56.79
1.648	56.95
1.66	57.27
1.672	57.68
1.684	57.92
1.696	58.14
1.708	58.27
1.72	58.46
1.732	58.67
1.744	58.81
1.756	58.87
1.768	58.87
1.78	58.96
1.792	59
1.804	59.05
1.816	59.02
1.828	58.89
1.84	58.74
1.852	58.49
1.864	58.24
1.876	57.9
1.888	57.27
1.9	56.48
1.912	55.82
1.924	55.47
1.936	55.32
1.948	55.27
1.96	55.19
1.972	55.06
1.984	54.92
1.996	54.84
2.008	54.72
2.02	54.62
2.032	54.5
2.044	54.35
2.056	54.13
2.068	53.86
2.08	53.68
2.092	53.58
2.104	53.5
2.116	53.41
2.128	53.32
2.14	53.05
2.152	52.86
2.164	52.82
2.176	52.62
2.188	52.48
2.2	52.33
2.212	52.08
2.224	52.12
2.236	52.15
2.248	52.16
2.26	52.2
2.272	52.13
2.284	52.06
2.296	52.16
2.308	52.14
2.32	52.34
2.332	52.44
2.344	52.47
2.356	52.58
2.368	52.74
2.38	52.98
2.392	53.1
2.404	53.24
2.416	53.52
2.428	53.7
2.44	53.75
2.452	53.74
2.464	53.81
2.476	53.88
2.488	54.16
2.5	54.42
