Name: Kernite Na_2B_4O_6(OH)_2.3H_2O
Type: Mineral
Class: Borates
Particle Size: 0-45um
Sample No.: B-2A
Owner: JPL
Origin: USA, California, Kern County, Boron
Measurement: Hemispherical reflectance
X Units: Wavelength (micrometers)
Y Units: Reflectance (percent)
wavelength	value
15.3853	4.98713
15.1161	4.86106
14.8563	4.99712
14.6052	5.41737
14.3624	4.51767
14.1276	4.33372
13.9004	5.56505
13.6803	5.05403
13.4671	5.07461
13.2604	5.56054
13.06	5.26715
12.8656	5.21021
12.6769	6.02021
12.4936	6.16039
12.3155	5.84897
12.1425	5.7264
11.9742	5.62204
11.8106	6.13304
11.6513	6.12746
11.4963	5.62848
11.3454	4.91125
11.1983	5.73235
11.0551	7.95456
10.9154	9.74627
10.7793	8.9143
10.6465	8.0428
10.5169	7.52976
10.3904	7.14966
10.267	7.14928
10.1464	7.06987
10.0287	6.02484
9.91364	6.72924
9.80119	8.36185
9.69128	8.5505
9.5838	8.9566
9.47867	7.86159
9.37583	6.46804
9.27519	4.95788
9.17669	4.17394
9.08027	3.79126
8.98585	2.85872
8.89337	2.16181
8.80277	2.06773
8.714	2.29176
8.62701	2.46215
8.54174	2.27416
8.45813	2.63435
8.37614	3.38326
8.29573	3.93083
8.21685	4.74924
8.13946	5.46733
8.0635	6.10242
7.98896	6.67211
7.91578	7.03594
7.84392	7.23614
7.77337	7.21778
7.70406	6.64686
7.63598	5.59634
7.5691	4.74696
7.50338	5.70463
7.43879	5.56483
7.37529	5.84932
7.31288	6.14719
7.25152	7.18737
7.19117	7.55834
7.13182	7.25965
7.07344	6.59805
7.01601	5.12233
6.95951	4.60543
6.90391	3.23922
6.84918	2.74504
6.79532	2.52789
6.74231	2.34404
6.69011	2.25481
6.63871	2.20374
6.5881	2.27641
6.53825	2.42457
6.48915	2.67471
6.44079	2.82769
6.39314	3.03097
6.34618	3.13187
6.29992	3.24248
6.25432	3.33758
6.20938	3.48327
6.16508	3.58345
6.12141	3.78265
6.07835	3.83788
6.0359	3.84719
5.99403	3.99118
5.95274	3.95864
5.91201	3.89636
5.87184	3.52983
5.83221	3.92488
5.79311	4.92238
5.75453	6.11033
5.71646	7.12137
5.6789	8.24493
5.64182	9.65015
5.60522	10.4857
5.5691	11.6216
5.53344	12.3974
5.49823	13.1252
5.46347	14.2656
5.42914	15.0007
5.39525	15.6746
5.36177	16.3076
5.32871	17.0215
5.29605	17.6217
5.26379	17.8535
5.23192	17.8567
5.20044	17.9397
5.16933	18.2245
5.13859	18.3734
5.10821	18.4342
5.07819	18.6402
5.04852	18.5858
5.0192	18.6866
4.99021	18.5159
4.96156	18.1081
4.93324	17.8284
4.90524	17.3296
4.87755	17.0681
4.85017	16.8006
4.8231	16.6753
4.79633	16.3348
4.76986	15.7176
4.74367	15.1568
4.71777	14.8079
4.69216	14.3088
4.66682	14.1016
4.64175	13.811
4.61695	13.4779
4.59241	12.9657
4.56814	12.641
4.54411	12.3587
4.52034	12.1369
4.49682	12.3033
4.47354	12.5128
4.4505	12.491
4.4277	12.6175
4.40513	12.9246
4.38278	13.2153
4.36067	13.6602
4.33877	13.7899
4.3171	13.9273
4.29564	14.1528
4.27439	14.082
4.25335	14.9458
4.23252	15.3754
4.21189	17.1052
4.19146	18.3872
4.17123	19.3112
4.15119	19.8445
4.13134	20.236
4.11168	20.375
4.09221	20.5492
4.07292	20.5106
4.05382	21.0128
4.03489	21.8398
4.01614	23.0384
3.99756	23.9019
3.97915	24.4777
3.96091	24.7549
3.94284	24.971
3.92493	24.9535
3.90718	24.8544
3.8896	24.9414
3.87217	24.884
3.8549	24.5828
3.83777	24.3822
3.82081	23.9497
3.80399	23.3004
3.78731	22.8958
3.77079	22.62
3.7544	22.4239
3.73816	22.1561
3.72206	21.5954
3.7061	20.9113
3.69027	20.2073
3.67458	19.3308
3.65902	18.4974
3.64359	17.4507
3.6283	16.7026
3.61312	16.0219
3.59808	15.4849
3.58316	14.8869
3.56836	14.486
3.55369	14.0628
3.53914	13.653
3.5247	13.2229
3.51038	12.7563
3.49618	12.464
3.48209	11.9328
3.46812	11.7421
3.45425	11.2919
3.4405	10.5746
3.42686	10.2154
3.41332	9.62878
3.39989	9.05783
3.38657	8.28607
3.37335	7.62432
3.36023	6.96335
3.34721	6.56054
3.3343	6.21131
3.32148	6.06489
3.30876	6.12461
3.29614	6.18528
3.28362	6.21662
3.27119	6.44036
3.25885	6.19877
3.24661	6.22054
3.23446	5.92867
3.22239	5.80534
3.21042	5.68532
3.19854	5.35663
3.18674	4.96947
3.17504	4.77228
3.16341	4.67592
3.15187	4.25796
3.14042	4.20403
3.12905	4.15365
3.11776	3.70072
3.10655	3.60862
3.09542	3.32961
3.08437	3.41576
3.0734	3.31493
3.06251	3.07279
3.0517	2.89013
3.04096	2.6188
3.03029	2.70032
3.0197	2.46026
3.00919	2.54701
2.99875	2.47667
2.98838	1.97481
2.97808	2.36217
2.96785	2.19151
2.95769	1.9218
2.9476	2.09683
2.93758	2.19844
2.92763	2.43404
2.91775	2.1316
2.90793	2.28189
2.89817	2.17041
2.88849	2.31885
2.87886	2.56035
2.8693	2.77868
2.85981	3.1797
2.85038	3.71068
2.841	4.28819
2.83169	3.93281
2.82245	2.91902
2.81326	2.19608
2.80413	2.56328
2.79506	4.00163
2.78605	5.57654
2.77709	7.87202
2.7682	11.6826
2.75936	14.5263
2.75057	17.9572
2.74185	22.8409
2.73318	26.974
2.72456	31.8374
2.71599	34.4863
2.70748	37.1861
2.69903	39.193
2.69062	41.2763
2.68227	43.2993
2.67397	45.3171
2.66572	48.3975
2.65753	48.3478
2.64938	49.192
2.64128	50.3937
2.63323	51.5526
2.62523	52.294
2.61728	53.8654
2.60938	53.6483
2.60152	53.6847
2.59371	55.3059
2.58595	53.9272
2.57824	53.2916
2.57057	52.3074
2.56294	51.6708
2.55536	50.7804
2.54783	51.1125
2.54034	51.081
2.53289	51.7241
2.52549	51.8302
2.51813	51.8102
2.51082	51.9426
2.50354	52.1648
2.49631	52.4977
2.48912	52.6866
2.48197	52.7069
2.47486	52.8629
2.46779	52.9136
2.46077	53.2049
2.45378	53.0717
2.44683	53.2707
2.43992	53.3522
2.43305	53.3766
2.42622	53.5753
2.41943	54.4083
2.41267	54.6705
2.40595	55.2932
2.39928	55.8284
2.39263	56.6727
2.38603	58.0845
2.37946	59.0499
2.37292	60.6177
2.36642	61.6736
2.35996	62.4636
2.35353	63.1555
2.34714	63.8502
2.34078	64.4254
2.33446	65.2521
2.32817	65.7911
2.32191	66.239
2.31569	66.2879
2.3095	66.3884
2.30335	66.2438
2.29722	65.4675
2.29113	65.0251
2.28507	64.2207
2.27905	63.8917
2.27305	63.881
2.26709	63.5058
2.26116	63.4065
2.25526	63.0564
2.24939	62.8864
2.24355	62.8196
2.23774	62.1342
2.23196	60.9075
2.22621	60.1568
2.22049	59.1942
2.21479	57.964
2.20913	56.3151
2.2035	55.109
2.19789	51.7783
2.19232	49.4296
2.18677	49.5981
2.18125	52.5049
2.17576	56.351
2.17029	58.6624
2.16486	60.124
2.15945	60.4079
2.15406	61.1588
2.14871	61.3725
2.14338	61.5215
2.13808	61.624
2.1328	61.9676
2.12755	62.1889
2.12232	62.1907
2.11712	62.1635
2.11195	62.2995
2.1068	61.7385
2.10168	61.3917
2.09658	61.6445
2.0915	60.9629
2.08645	60.7251
2.08143	60.7916
2.07643	59.2939
2.07145	59.2233
2.06649	58.8366
2.06156	58.5548
2.05666	56.763
2.05177	55.8529
2.04691	55.9931
2.04208	56.0564
2.03726	55.7989
2.03247	55.714
2.0277	55.5497
2.02295	55.5683
2.01823	55.2921
2.01353	54.4818
2.00885	54.0915
2.00419	53.7928
