Name: Titanite (Sphene) CaTiSiO_5
Type: Mineral
Class: Silicates
Subclass: Nesosilicates
Particle Size: 125-500um
Sample No.: NS-7A
Owner: JPL
Origin: Brazil, Minas Gerais, Capelinha
Measurement: Hemispherical reflectance
X Units: Wavelength (micrometers)
Y Units: Reflectance (percent)
wavelength	value
15.385	10.0601
15.116	10.9019
14.856	11.2097
14.605	11.6645
14.362	12.0454
14.128	12.2037
13.9	12.5575
13.68	12.5762
13.467	12.5144
13.26	11.959
13.06	10.6929
12.866	9.1375
12.677	8.4227
12.494	8.4495
12.316	9.5922
12.143	12.0546
11.974	16.168
11.811	21.2737
11.651	26.5294
11.496	32.0578
11.345	32.0381
11.198	33.4433
11.055	37.7316
10.915	37.3327
10.779	40.6951
10.647	41.7235
10.517	43.0193
10.39	42.633
10.267	39.9199
10.146	34.2602
10.029	25.9081
9.914	20.2101
9.801	11.0629
9.691	4.0624
9.584	1.0137
9.479	0.2919
9.376	0.0772
9.275	0.3578
9.177	0.1344
9.08	0.3675
8.986	0.3903
8.893	0.6191
8.803	0.6011
8.714	0.7374
8.627	0.8813
8.542	0.8552
8.458	1.1591
8.376	1.1716
8.296	1.2292
8.217	1.3244
8.139	1.495
8.063	1.4939
7.989	1.553
7.916	1.9859
7.844	2.0081
7.773	2.1719
7.704	2.2255
7.636	2.3865
7.569	2.4035
7.503	2.4913
7.439	2.6452
7.375	2.8342
7.313	2.98
7.252	3.071
7.191	3.1606
7.132	3.3411
7.073	3.2919
7.016	3.3897
6.96	3.6662
6.904	3.7577
6.849	4.0692
6.795	4.5406
6.742	4.7752
6.69	5.2902
6.639	6.2411
6.588	6.4615
6.538	6.7215
6.489	7.3185
6.441	6.92
6.393	6.759
6.346	6.7094
6.3	6.618
6.254	6.9051
6.209	7.0826
6.165	7.1174
6.121	7.0464
6.078	6.6558
6.036	6.1891
5.994	5.8816
5.953	5.4606
5.912	4.9557
5.872	4.4414
5.832	4.1555
5.793	3.8108
5.755	3.6749
5.716	3.8554
5.679	4.04
5.642	4.3338
5.605	4.5622
5.569	4.9085
5.533	5.1766
5.498	5.3007
5.463	5.3753
5.429	5.3099
5.395	5.2969
5.362	5.5298
5.329	6.3884
5.296	7.287
5.264	9.0798
5.232	11.4809
5.2	14.3239
5.169	17.3446
5.139	19.0984
5.108	19.6249
5.078	18.7808
5.049	17.8236
5.019	18.8352
4.99	21.9713
4.962	25.8501
4.933	29.6021
4.905	33.329
4.878	36.5268
4.85	39.0255
4.823	41.0918
4.796	42.8638
4.77	44.2807
4.744	45.7229
4.718	46.6228
4.692	46.6525
4.667	46.7063
4.642	47.8722
4.617	49.5099
4.592	51.0679
4.568	52.639
4.544	54.0733
4.52	55.0928
4.497	55.8784
4.474	56.3709
4.45	56.8746
4.428	57.2349
4.405	57.8703
4.383	58.5384
4.361	59.1489
4.339	59.7667
4.317	60.3925
4.296	60.9375
4.274	61.418
4.253	61.8996
4.233	62.3875
4.212	62.6365
4.191	62.7914
4.171	62.7414
4.151	62.6652
4.131	62.8558
4.112	62.9024
4.092	63.0957
4.073	63.012
4.054	62.846
4.035	62.3163
4.016	61.7525
3.998	60.9085
3.979	60.0633
3.961	59.2176
3.943	58.6105
3.925	57.9282
3.907	57.5
3.89	57.1998
3.872	57.1527
3.855	57.8788
3.838	58.7461
3.821	59.6911
3.804	60.7129
3.787	61.755
3.771	62.7455
3.754	63.3899
3.738	63.7572
3.722	63.8851
3.706	63.7989
3.69	63.7231
3.675	63.448
3.659	63.5287
3.644	63.5455
3.628	63.4955
3.613	62.9992
3.598	62.2531
3.583	62.1163
3.568	62.8949
3.554	64.215
3.539	65.5046
3.525	65.9398
3.51	65.6923
3.496	65.3665
3.482	65.6062
3.468	65.6371
3.454	65.4076
3.441	64.8169
3.427	63.9622
3.413	63.1555
3.4	63.3354
3.387	63.0804
3.373	62.5055
3.36	63.251
3.347	63.1824
3.334	63.1109
3.321	62.6058
3.309	62.0364
3.296	61.5553
3.284	61.0194
3.271	60.1782
3.259	59.1505
3.247	58.0223
3.234	56.5709
3.222	55.5012
3.21	54.7466
3.199	54.0852
3.187	52.9657
3.175	52.0814
3.163	51.2997
3.152	50.3124
3.14	49.1876
3.129	48.2816
3.118	47.0418
3.107	46.0836
3.095	44.968
3.084	43.9866
3.073	42.7454
3.063	41.4003
3.052	40.2646
3.041	39.3536
3.03	38.5487
3.02	37.7503
3.009	36.6547
2.999	35.5793
2.988	34.446
2.978	33.5412
2.968	32.2423
2.958	30.6281
2.948	28.4913
2.938	25.9618
2.928	23.9145
2.918	22.0233
2.908	18.392
2.898	13.7152
2.888	9.1494
2.879	5.911
2.869	5.1673
2.86	6.0923
2.85	9.4642
2.841	16.8924
2.832	23.1958
2.822	26.5336
2.813	27.6946
2.804	29.1946
2.795	31.007
2.786	33.4666
2.777	34.5859
2.768	36.6139
2.759	37.3284
2.751	38.4671
2.742	40.0241
2.733	39.5172
2.725	40.925
2.716	40.4145
2.707	41.3801
2.699	42.5223
2.691	43.8411
2.682	44.7326
2.674	45.4265
2.666	47.6522
2.658	46.2783
2.649	46.7343
2.641	47.7373
2.633	48.3133
2.625	48.0862
2.617	48.4095
2.609	47.5392
2.602	47.4933
2.594	48.7331
2.586	47.5013
2.578	48.5222
2.571	51.1626
2.563	53.357
2.555	52.7152
2.548	52.1968
2.54	51.234
2.533	51.1887
2.525	51.7157
2.518	52.0485
2.511	51.9132
2.504	51.7946
2.496	51.0984
2.489	50.9435
2.482	52.0481
2.475	53.9031
2.468	55.0132
2.461	55.874
2.454	56.6523
2.447	57.4585
2.44	57.2428
2.433	55.0282
2.426	50.8397
2.419	45.3756
2.413	40.0765
2.406	37.0141
2.399	36.165
2.393	39.1735
2.386	46.0765
2.379	53.792
2.373	59.5532
2.366	62.9382
2.36	64.5662
2.354	65.2067
2.347	65.5575
2.341	65.5018
2.334	65.0282
2.328	63.753
2.322	62.1292
2.316	60.1065
2.309	58.0359
2.303	56.9645
2.297	56.8567
2.291	57.5304
2.285	57.5423
2.279	55.6814
2.273	52.1185
2.267	47.3995
2.261	46.6678
2.255	50.5611
2.249	52.9546
2.244	53.3755
2.238	52.991
2.232	52.2381
2.226	51.4121
2.22	51.2671
2.215	52.2732
2.209	49.9129
2.204	42.5772
2.198	41.6987
2.192	49.895
2.187	57.2998
2.181	61.5312
2.176	65.2885
2.17	67.2121
2.165	68.0451
2.159	68.8506
2.154	69.4212
2.149	69.819
2.143	70.279
2.138	70.632
2.133	70.5948
2.128	70.4555
2.122	70.6812
2.117	70.4748
2.112	70.8292
2.107	70.5629
2.102	70.6263
2.097	70.4661
2.091	70.2086
2.086	70.5817
2.081	70.4674
2.076	70.1356
2.071	70.5834
2.066	69.8424
2.062	69.8952
2.057	69.7992
2.052	69.6577
2.047	69.7999
2.042	69.5777
2.037	69.5598
2.032	69.8862
2.028	69.4611
2.023	69.512
2.018	69.4981
2.014	70.1079
2.009	69.7739
2.004	69.7121
