Name: Celestite SrSO_4
Type: Mineral
Class: Sulfates
Particle Size: 0-45um
Sample No.: SO-5A
Owner: JPL
Wavelength Range: VNIR-SWIR
Origin: USA, Utah, Emery County
Measurement: Hemispherical reflectance
X Units: Wavelength (micrometers)
Y Units: Reflectance (percent)
wavelength	value
0.4	79.97
0.403	79.97
0.406	80.9
0.409	80.61
0.412	81.14
0.415	81.55
0.418	81.55
0.421	81.77
0.424	81.65
0.427	82.36
0.43	81.77
0.433	82.3
0.436	82.3
0.439	82.18
0.442	82.53
0.445	82.65
0.448	83.05
0.451	82.83
0.454	83.24
0.457	83.12
0.46	83.36
0.463	83.49
0.466	82.85
0.469	83.61
0.472	83.33
0.475	83.74
0.478	83.57
0.481	83.98
0.484	83.93
0.487	83.64
0.49	84.06
0.493	83.89
0.496	84.23
0.499	84.13
0.502	84.01
0.505	84.65
0.508	84.07
0.511	84.48
0.514	84.19
0.517	84.36
0.52	84.6
0.523	84.19
0.526	85.01
0.529	84.48
0.532	84.89
0.535	85.12
0.538	84.89
0.541	85.47
0.544	84.54
0.547	85.52
0.55	85.12
0.553	85.01
0.556	85.12
0.559	84.89
0.562	85.12
0.565	85.52
0.568	84.83
0.571	85.82
0.574	85.18
0.577	85.82
0.58	85.18
0.583	85.58
0.586	85.3
0.589	85.35
0.592	85.35
0.595	85.18
0.598	85.64
0.601	85.12
0.604	86.05
0.607	85.47
0.61	86.17
0.613	85.82
0.616	86.52
0.619	86.05
0.622	86.17
0.625	85.99
0.628	86.29
0.631	86.17
0.634	86.23
0.637	86.52
0.64	86.23
0.643	86.52
0.646	85.99
0.649	86.7
0.652	86.11
0.655	86.87
0.658	86.17
0.661	86.81
0.664	86.52
0.667	86.64
0.67	86.64
0.673	86.64
0.676	87.21
0.679	86.34
0.682	86.98
0.685	86.58
0.688	86.87
0.691	86.98
0.694	86.87
0.697	87.1
0.7	86.87
0.703	86.64
0.706	87.21
0.709	86.64
0.712	86.98
0.715	86.93
0.718	86.98
0.721	87.21
0.724	86.87
0.727	87.1
0.73	86.76
0.733	86.81
0.736	87.21
0.739	86.64
0.742	87.1
0.745	86.87
0.748	86.76
0.751	87.16
0.754	86.46
0.757	87.04
0.76	86.93
0.763	86.64
0.766	87.1
0.769	86.64
0.772	87.16
0.775	86.87
0.778	87.33
0.781	86.93
0.784	86.98
0.787	87.16
0.79	86.81
0.793	87.27
0.796	86.46
0.799	86.46
0.808	86.46
0.82	86.52
0.832	86.52
0.844	86.52
0.856	86.7
0.868	86.7
0.88	86.64
0.892	86.7
0.904	86.52
0.916	86.7
0.928	86.76
0.94	86.76
0.952	86.81
0.964	86.7
0.976	86.81
0.988	86.98
1	86.81
1.012	86.87
1.024	86.93
1.036	87.04
1.048	86.93
1.06	86.93
1.072	87.04
1.084	86.93
1.096	86.87
1.108	87.04
1.12	87.1
1.132	86.93
1.144	87.04
1.156	87.04
1.168	86.89
1.18	86.99
1.192	87.03
1.204	86.9
1.216	86.96
1.228	86.9
1.24	86.96
1.252	86.78
1.264	87.05
1.276	86.91
1.288	87.01
1.3	87.04
1.312	86.91
1.324	86.83
1.336	86.81
1.348	86.84
1.36	86.72
1.372	86.9
1.384	86.84
1.396	86.66
1.408	86.62
1.42	86.76
1.432	86.72
1.444	86.86
1.456	86.81
1.468	86.69
1.48	86.58
1.492	86.63
1.504	86.63
1.516	86.63
1.528	86.81
1.54	86.81
1.552	86.81
1.564	86.87
1.576	86.75
1.588	86.99
1.6	87.04
1.612	86.91
1.624	86.83
1.636	86.98
1.648	86.9
1.66	86.82
1.672	86.97
1.684	86.95
1.696	86.93
1.708	87.1
1.72	86.98
1.732	86.75
1.744	86.92
1.756	86.98
1.768	86.81
1.78	86.98
1.792	86.86
1.804	86.73
1.816	86.87
1.828	86.79
1.84	86.58
1.852	86.75
1.864	86.72
1.876	86.47
1.888	86.39
1.9	86.37
1.912	86.24
1.924	86.21
1.936	86.14
1.948	86.34
1.96	86.4
1.972	86.46
1.984	86.8
1.996	86.9
2.008	86.97
2.02	87.19
2.032	87.11
2.044	87.13
2.056	87.32
2.068	87.38
2.08	87.45
2.092	87.4
2.104	87.73
2.116	87.8
2.128	87.62
2.14	87.58
2.152	87.48
2.164	87.28
2.176	87.09
2.188	87.12
2.2	87.1
2.212	86.89
2.224	87.07
2.236	87.19
2.248	87.16
2.26	87.13
2.272	87.33
2.284	87.46
2.296	87.52
2.308	87.72
2.32	87.95
2.332	88.02
2.344	87.84
2.356	87.85
2.368	87.84
2.38	87.72
2.392	87.57
2.404	87.45
2.416	87.49
2.428	87.52
2.44	87.44
2.452	87.19
2.464	87.16
2.476	87.38
2.488	87.57
2.5	87.78
