Name: Colemanite Ca_2B_6O_11.5H_2O
Type: Mineral
Class: Borates
Particle Size: 125-500um
Sample No.: B-1A
Owner: JPL
Origin: USA, California, Kern County, Boron.
Measurement: Hemispherical reflectance
X Units: Wavelength (micrometers)
Y Units: Reflectance (percent)
wavelength	value
2.5	3.47392
2.494	3.48569
2.488	3.72426
2.482	3.62287
2.476	3.62768
2.47	3.63977
2.464	3.71127
2.458	3.69574
2.452	3.56672
2.446	3.71137
2.44	3.87741
2.434	3.97235
2.428	4.07753
2.422	4.20392
2.416	4.37788
2.41	4.5136
2.404	4.84753
2.398	5.21409
2.392	5.47994
2.386	6.01382
2.38	6.43926
2.374	6.96504
2.368	7.5381
2.362	8.06267
2.356	8.58674
2.35	9.07835
2.344	9.53244
2.338	9.8492
2.332	10.2274
2.326	10.5495
2.32	10.884
2.314	11.1599
2.308	11.2911
2.302	11.3432
2.296	11.3854
2.29	11.4098
2.284	11.253
2.278	11.2002
2.272	10.9016
2.266	10.6739
2.26	10.4567
2.254	10.2114
2.248	9.82503
2.242	9.32582
2.236	8.82919
2.23	8.36446
2.224	8.05695
2.218	7.75038
2.212	7.33381
2.206	6.91781
2.2	6.79194
2.194	7.07401
2.188	7.40336
2.182	7.63894
2.176	7.79451
2.17	7.94693
2.164	8.15718
2.158	8.55492
2.152	9.04587
2.146	9.47061
2.14	9.58646
2.134	9.18774
2.128	8.46232
2.122	7.49834
2.116	6.61426
2.11	6.09529
2.104	6.05602
2.098	6.70078
2.092	8.3025
2.086	10.2442
2.08	11.6318
2.074	12.245
2.068	12.5624
2.062	12.6805
2.056	12.7731
2.05	12.8526
2.044	12.9127
2.038	12.8329
2.032	12.7014
2.026	12.5868
2.02	12.4993
2.014	12.3756
2.008	12.2097
2.002	11.9211
1.996	11.7895
1.99	11.6787
1.984	11.4533
1.978	11.2464
1.972	10.983
1.966	10.8879
1.96	10.7978
1.954	10.879
1.948	11.3701
1.942	12.187
1.936	13.3155
1.93	14.538
1.924	15.8406
1.918	17.2159
1.912	18.4921
1.906	19.7179
1.9	20.7545
1.894	21.738
1.888	22.4173
1.882	23.0406
1.876	23.5883
1.87	23.9902
1.864	24.4976
1.858	24.7607
1.852	24.9239
1.846	24.9558
1.84	24.9875
1.834	24.9594
1.828	24.8603
1.822	24.909
1.816	24.8453
1.81	24.8114
1.804	24.8072
1.798	24.7805
1.792	24.8471
1.786	24.806
1.78	24.8273
1.774	24.8481
1.768	24.8795
1.762	24.9383
1.756	25.0934
1.75	25.2323
1.744	25.3643
1.738	25.4936
1.732	25.5113
1.726	25.4092
1.72	25.2979
1.714	25.0289
1.708	24.8028
1.702	24.4744
1.696	24.1993
1.69	24.0036
1.684	23.8512
1.678	23.7776
1.672	23.662
1.666	23.6761
1.66	23.6809
1.654	23.8699
1.648	24.2472
1.642	24.7731
1.636	25.2957
1.63	25.9533
1.624	26.7487
1.618	27.5314
1.612	28.341
1.606	29.0761
1.6	29.6956
1.594	30.2651
1.588	30.5066
1.582	30.5722
1.576	30.391
1.57	30.2016
1.564	30.1034
1.558	30.1965
1.552	30.3046
1.546	30.8612
1.54	31.6882
1.534	32.7768
1.528	33.7046
1.522	34.5738
1.516	35.4272
1.51	36.2058
1.504	36.8141
1.498	37.3805
1.492	37.7848
1.486	38.2102
1.48	38.265
1.474	37.9253
1.468	37.0368
1.462	35.9399
1.456	34.7855
1.45	33.874
1.444	33.5059
1.438	34.1082
1.432	31.3604
1.426	22.5575
1.42	20.6813
1.414	26.532
1.408	34.5985
1.402	41.5282
1.396	47.4718
1.39	51.2019
1.384	54.1919
1.378	56.8559
1.372	58.7308
1.366	60.1329
1.36	61.1429
1.354	62.2244
1.348	62.7769
1.342	62.9265
1.336	63.3148
1.33	64.3701
1.324	65.3957
1.318	66.4828
1.312	67.6417
1.306	68.6281
1.3	69.3773
1.294	69.9855
1.288	70.4909
1.282	70.9234
1.276	71.2687
1.27	71.6068
1.264	71.8594
1.258	71.9763
1.252	72.1338
1.246	72.0863
1.24	72.0864
1.234	71.9468
1.228	71.8164
1.222	72.1913
1.216	73.3554
1.21	73.9077
1.204	74.2517
1.198	74.3318
1.192	74.385
1.186	74.2712
1.18	74.522
1.174	75.2953
1.168	76.2578
1.162	77.1951
1.156	77.9665
1.15	78.7213
1.144	79.4629
1.138	79.912
1.132	80.338
1.126	80.6017
1.12	80.7567
1.114	80.9325
1.108	81.001
1.102	81.1764
1.096	81.3187
1.09	81.4869
1.084	81.6621
1.078	81.7004
1.072	81.8747
1.066	82.0379
1.06	82.1331
1.054	82.1482
1.048	82.2612
1.042	82.2024
1.036	82.1278
1.03	82.0721
1.024	81.9116
1.018	81.8019
1.012	81.5052
1.006	81.1597
1	80.7182
0.994	80.0845
0.988	79.2756
0.982	77.9455
0.976	75.4716
0.97	74.187
0.964	76.4838
0.958	79.7081
0.952	81.5402
0.946	82.445
0.94	82.9402
0.934	83.2493
0.928	83.4403
0.922	83.6141
0.916	83.7879
0.91	83.8991
0.904	83.9951
0.898	83.9996
0.892	84.1103
0.886	84.0429
0.88	84.1746
0.874	84.0819
0.868	84.1043
0.862	84.0277
0.856	84.0166
0.85	84.0658
0.844	84.2171
0.838	84.2506
0.832	84.2777
0.826	84.2866
0.82	84.2759
0.814	84.3072
0.808	84.3269
0.802	84.3389
0.796	84.2248
0.79	84.1781
0.784	84.215
0.778	84.1469
0.772	84.0822
0.766	83.927
0.76	83.8566
0.754	83.7184
0.748	83.517
0.742	83.5769
0.736	83.7943
0.73	83.97
0.724	83.9697
0.718	83.9909
0.712	83.9938
0.706	83.9867
0.7	83.9681
0.694	83.9254
0.688	83.9168
0.682	83.8979
0.676	83.8782
0.67	83.8267
0.664	83.8043
0.658	83.7274
0.652	83.6946
0.646	83.6233
0.64	83.5742
0.634	83.5229
0.628	83.4302
0.622	83.3738
0.616	83.2742
0.61	83.2062
0.604	83.1447
0.598	83.1208
0.592	83.0845
0.586	82.9634
0.58	82.8704
0.574	82.7393
0.568	82.6353
0.562	82.5223
0.556	82.3587
0.55	82.2125
0.544	82.0224
0.538	81.8194
0.532	81.6162
0.526	81.4035
0.52	81.1441
0.514	80.8657
0.508	80.5517
0.502	80.1538
0.496	79.7993
0.49	79.4124
0.484	78.9611
0.478	78.5934
0.472	78.2093
0.466	77.8237
0.46	77.4389
0.454	77.0364
0.448	76.6538
0.442	76.2568
0.436	75.8981
0.43	75.549
0.424	75.1915
0.418	74.8163
0.412	74.4206
0.406	73.9973
0.4	73.5354
