Name: Quartz SiO_2
Type: Mineral
Class: Silicates
Subclass: Tectosilicates
Particle Size: 125-500um
Sample No.: TS-1C
Owner: JPL
Origin: USA, South Dakota, Custer County, Custer
Description: Rose quartz.
Measurement: Hemispherical reflectance
X Units: Wavelength (micrometers)
Y Units: Reflectance (percent)
wavelength	value
15.385	3.722
15.116	3.6919
14.856	3.9823
14.605	4.3646
14.362	4.4812
14.128	3.6848
13.9	4.1161
13.68	4.9336
13.467	5.2139
13.26	5.7835
13.06	7.2641
12.866	13.0875
12.677	10.0874
12.494	12.4013
12.316	1.4616
12.143	1.867
11.974	2.621
11.811	3.5289
11.651	3.8565
11.496	4.1297
11.345	4.727
11.198	5.0711
11.055	5.4057
10.915	5.6683
10.779	6.0912
10.647	6.6032
10.517	7.0182
10.39	7.6051
10.267	8.2374
10.146	9.2134
10.029	9.8726
9.914	11.0856
9.801	12.8626
9.691	15.1549
9.584	18.3753
9.479	24.7078
9.376	40.8296
9.275	55.4567
9.177	58.5098
9.08	59.8901
8.986	60.7665
8.893	60.4507
8.803	57.8548
8.714	53.1228
8.627	33.9047
8.542	54.2027
8.458	55.6076
8.376	53.5065
8.296	51.5868
8.217	49.0416
8.139	39.011
8.063	24.5147
7.989	15.1308
7.916	8.3558
7.844	4.3625
7.773	2.5627
7.704	1.3189
7.636	0.6231
7.569	0.2323
7.503	0.0905
7.439	0.0564
7.375	0.0488
7.313	0.1147
7.252	0.1634
7.191	0.2662
7.132	0.0883
7.073	0.3047
7.016	0.2729
6.96	0.3118
6.904	0.3775
6.849	0.5172
6.795	0.5261
6.742	0.5351
6.69	0.4812
6.639	0.679
6.588	0.6385
6.538	0.6641
6.489	0.8002
6.441	1.0856
6.393	1.0734
6.346	0.9334
6.3	0.7854
6.254	0.9446
6.209	0.8926
6.165	0.8939
6.121	0.8684
6.078	1.2912
6.036	1.2428
5.994	1.1473
5.953	1.276
5.912	1.1737
5.872	1.3698
5.832	1.6204
5.793	1.8282
5.755	2.2081
5.716	2.4894
5.679	2.2005
5.642	1.5855
5.605	1.4704
5.569	1.3953
5.533	1.4596
5.498	1.5955
5.463	1.793
5.429	1.742
5.395	1.3876
5.362	1.3478
5.329	1.3304
5.296	1.3194
5.264	1.3457
5.232	1.5754
5.2	1.8769
5.169	1.8665
5.139	1.8272
5.108	1.7578
5.078	1.6979
5.049	1.5933
5.019	1.725
4.99	1.7405
4.962	1.925
4.933	2.3927
4.905	3.6538
4.878	7.6081
4.85	11.77
4.823	15.2312
4.796	18.2174
4.77	20.7714
4.744	22.6773
4.718	23.0625
4.692	18.9524
4.667	19.7931
4.642	25.4717
4.617	29.9645
4.592	32.0308
4.568	31.8661
4.544	28.3302
4.52	21.7183
4.497	15.6088
4.474	13.7887
4.45	14.9747
4.428	16.726
4.405	19.3672
4.383	23.1302
4.361	27.7782
4.339	30.5557
4.317	30.745
4.296	29.4422
4.274	30.0036
4.253	32.2489
4.233	32.1173
4.212	33.1803
4.191	33.7819
4.171	35.8715
4.151	37.4984
4.131	39.197
4.112	41.479
4.092	43.9981
4.073	45.8308
4.054	46.5459
4.035	46.046
4.016	45.6102
3.998	45.9459
3.979	47.1548
3.961	48.7556
3.943	50.6503
3.925	51.84
3.907	51.8173
3.89	50.6442
3.872	49.3251
3.855	48.7939
3.838	48.979
3.821	50.0305
3.804	50.7003
3.787	50.4185
3.771	49.2795
3.754	48.2183
3.738	48.0599
3.722	49.0093
3.706	51.0919
3.69	53.9441
3.675	56.5237
3.659	58.6807
3.644	59.6869
3.628	60.1376
3.613	60.3705
3.598	60.8015
3.583	61.6228
3.568	62.6828
3.554	64.0065
3.539	65.2854
3.525	66.5076
3.51	67.1983
3.496	67.8869
3.482	68.9634
3.468	69.5876
3.454	69.8177
3.441	69.5052
3.427	68.701
3.413	67.8472
3.4	68.1622
3.387	68.1304
3.373	67.8021
3.36	68.0768
3.347	68.0266
3.334	67.5963
3.321	67.1492
3.309	66.2117
3.296	65.4857
3.284	64.5941
3.271	63.9798
3.259	63.4279
3.247	62.6497
3.234	61.8833
3.222	61.091
3.21	60.2735
3.199	59.4034
3.187	58.4088
3.175	57.6755
3.163	56.6377
3.152	55.4904
3.14	53.8217
3.129	52.6513
3.118	52.2743
3.107	52.1369
3.095	52.1106
3.084	51.5809
3.073	50.7658
3.063	50.1798
3.052	49.0344
3.041	47.6673
3.03	46.807
3.02	46.2916
3.009	46.5284
2.999	46.9742
2.988	47.0699
2.978	45.9132
2.968	42.4797
2.958	40.3586
2.948	43.4092
2.938	45.1035
2.928	45.6299
2.918	45.3222
2.908	46.1862
2.898	47.626
2.888	48.6372
2.879	48.6087
2.869	47.5791
2.86	50.6555
2.85	51.7814
2.841	52.5394
2.832	53.2189
2.822	53.8031
2.813	54.8765
2.804	56.1429
2.795	56.813
2.786	57.9642
2.777	58.4589
2.768	58.7492
2.759	58.1547
2.751	59.2325
2.742	61.9531
2.733	63.5911
2.725	67.1847
2.716	70.1084
2.707	72.9768
2.699	74.94
2.691	77.2757
2.682	78.9725
2.674	80.1402
2.666	81.7616
2.658	81.0363
2.649	81.3054
2.641	81.5425
2.633	81.9816
2.625	81.8663
2.617	82.5544
2.609	82.146
2.602	82.1607
2.594	83.009
2.586	82.4406
2.578	82.0587
2.571	82.3485
2.563	82.7002
2.555	82.1667
2.548	82.3657
2.54	82.3813
2.533	82.4742
2.525	82.3882
2.518	82.5577
2.511	82.4282
2.504	82.4378
2.496	82.6129
2.489	82.6333
2.482	82.6688
2.475	82.8248
2.468	82.9457
2.461	82.9608
2.454	83.0198
2.447	83.1884
2.44	83.0105
2.433	83.1907
2.426	83.3706
2.419	83.5018
2.413	83.3663
2.406	83.4376
2.399	83.5443
2.393	83.6161
2.386	83.4915
2.379	83.6047
2.373	83.6054
2.366	83.6743
2.36	83.6539
2.354	83.547
2.347	83.7389
2.341	83.7995
2.334	83.8945
2.328	83.8713
2.322	84.0203
2.316	84.0202
2.309	83.9377
2.303	84.0077
2.297	83.9505
2.291	84.0626
2.285	84.1546
2.279	84.1199
2.273	84.0386
2.267	84.0799
2.261	84.1
2.255	84.3278
2.249	83.9728
2.244	84.0182
2.238	84.1559
2.232	83.9954
2.226	83.9569
2.22	83.9609
2.215	83.7796
2.209	83.7184
2.204	83.7579
2.198	83.7371
2.192	83.6852
2.187	83.7339
2.181	83.6811
2.176	84.0292
2.17	84.0409
2.165	84.1764
2.159	83.9349
2.154	84.0487
2.149	84.1097
2.143	84.1062
2.138	84.2032
2.133	84.2091
2.128	84.095
2.122	83.9704
2.117	84.0887
2.112	84.0634
2.107	84.1697
2.102	84.2295
2.097	84.0955
2.091	84.1676
2.086	84.077
2.081	83.9839
2.076	83.9034
2.071	84.2155
2.066	84.1236
2.062	83.8072
2.057	83.9336
2.052	84.0132
2.047	83.8111
2.042	83.8165
2.037	83.9837
2.032	83.3653
2.028	83.8728
2.023	83.6673
2.018	83.4579
2.014	83.3775
2.009	83.4242
2.004	83.451
