Name: Serpentine (Mg,Fe^2+,Ni)Si_2O_5(OH)_4
Type: Mineral
Class: Silicates
Subclass: Phyllosilicates
Particle Size: 45-125um
Sample No.: PS-20A
Owner: JPL
Wavelength Range: VNIR-SWIR
Origin: USA, New York
Measurement: Hemispherical reflectance
X Units: Wavelength (micrometers)
Y Units: Reflectance (percent)
wavelength	value
0.4	50.17
0.403	50.31
0.406	50.06
0.409	50.02
0.412	49.8
0.415	49.73
0.418	49.75
0.421	49.78
0.424	49.63
0.427	49.39
0.43	49.41
0.433	49.2
0.436	49.26
0.439	49.53
0.442	50.02
0.445	50.22
0.448	50.58
0.451	50.97
0.454	51.25
0.457	51.55
0.46	51.88
0.463	52.95
0.466	54.18
0.469	55.5
0.472	56.74
0.475	57.67
0.478	58.36
0.481	58.98
0.484	59.33
0.487	59.9
0.49	60.21
0.493	60.33
0.496	60.74
0.499	61.38
0.502	61.66
0.505	62.05
0.508	62.39
0.511	62.68
0.514	63.17
0.517	63.4
0.52	63.8
0.523	63.94
0.526	64.25
0.529	64.35
0.532	64.62
0.535	64.95
0.538	65.15
0.541	65.33
0.544	65.63
0.547	65.74
0.55	65.78
0.553	66.1
0.556	66.41
0.559	66.32
0.562	66.96
0.565	67.16
0.568	67.18
0.571	67.09
0.574	67.16
0.577	67.22
0.58	67.38
0.583	67.42
0.586	67.31
0.589	67.3
0.592	67.48
0.595	67.49
0.598	67.51
0.601	67.72
0.604	67.57
0.607	67.59
0.61	67.62
0.613	67.63
0.616	67.59
0.619	67.6
0.622	67.42
0.625	67.3
0.628	67.25
0.631	67.38
0.634	67.34
0.637	67.38
0.64	67.05
0.643	67.1
0.646	67
0.649	67
0.652	67.01
0.655	67.14
0.658	66.89
0.661	66.8
0.664	66.76
0.667	66.83
0.67	66.76
0.673	66.77
0.676	66.55
0.679	66.62
0.682	66.57
0.685	66.61
0.688	66.52
0.691	66.62
0.694	66.33
0.697	66.42
0.7	66.37
0.703	66.18
0.706	66.43
0.709	66.29
0.712	66.23
0.715	66.09
0.718	66.17
0.721	65.86
0.724	66.1
0.727	65.98
0.73	65.83
0.733	65.91
0.736	65.85
0.739	65.96
0.742	66.01
0.745	65.85
0.748	65.92
0.751	65.95
0.754	65.83
0.757	66.03
0.76	66.01
0.763	65.94
0.766	65.97
0.769	66.05
0.772	66
0.775	66.26
0.778	66.22
0.781	66.13
0.784	66.3
0.787	66.49
0.79	66.42
0.793	66.69
0.796	66.65
0.799	66.72
0.808	67.1
0.82	67.1
0.832	67.12
0.844	67.04
0.856	66.91
0.868	66.8
0.88	66.6
0.892	66.56
0.904	66.53
0.916	66.58
0.928	66.71
0.94	65.05
0.952	65.82
0.964	67.23
0.976	67.54
0.988	67.78
1	67.96
1.012	68.08
1.024	68.28
1.036	68.27
1.048	68.36
1.06	68.39
1.072	68.51
1.084	68.4
1.096	68.65
1.108	68.61
1.12	68.79
1.132	68.77
1.144	68.84
1.156	68.89
1.168	69.05
1.18	69.29
1.192	69.42
1.204	69.77
1.216	69.91
1.228	70.13
1.24	70.27
1.252	69.98
1.264	69.27
1.276	68.09
1.288	69.37
1.3	70.38
1.312	70.88
1.324	70.93
1.336	70.63
1.348	65.66
1.36	64.52
1.372	59.18
1.384	36.42
1.396	48.25
1.408	62.51
1.42	65.88
1.432	67.45
1.444	68.28
1.456	68.91
1.468	69.42
1.48	69.97
1.492	70.71
1.504	70.9
1.516	71.47
1.528	71.79
1.54	72.26
1.552	72.46
1.564	72.82
1.576	73
1.588	73.13
1.6	73.44
1.612	73.46
1.624	73.5
1.636	73.59
1.648	73.61
1.66	73.66
1.672	73.45
1.684	73.48
1.696	73.35
1.708	73.04
1.72	72.71
1.732	72.38
1.744	71.95
1.756	71.46
1.768	70.95
1.78	70.73
1.792	70.46
1.804	69.75
1.816	69.39
1.828	69.64
1.84	69.14
1.852	68.36
1.864	67.26
1.876	64.73
1.888	61.07
1.9	56.44
1.912	53.33
1.924	52.72
1.936	52.83
1.948	52.5
1.96	51.92
1.972	51.39
1.984	51.67
1.996	52.98
2.008	54.65
2.02	55.51
2.032	56.46
2.044	58.3
2.056	60.46
2.068	60.41
2.08	58.27
2.092	55.67
2.104	54.72
2.116	54.2
2.128	54.46
2.14	57.16
2.152	59.9
2.164	61.19
2.176	61.44
2.188	61.23
2.2	60.54
2.212	58.48
2.224	53.72
2.236	48.27
2.248	44.46
2.26	40.71
2.272	37.77
2.284	36.08
2.296	32.76
2.308	27.42
2.32	24.13
2.332	25.54
2.344	31.86
2.356	35.81
2.368	34.82
2.38	32.96
2.392	31.46
2.404	30.65
2.416	29.9
2.428	29.43
2.44	29.92
2.452	30.18
2.464	29.24
2.476	27.09
2.488	25.12
2.5	24.12
