Name: Natrolite Na_2Al_2Si_3O_10.2H_2O
Type: Mineral
Class: Silicates
Subclass: Tectosilicates
Particle Size: 0-45um
Sample No.: TS-8A
Owner: JPL
Wavelength Range: VNIR-SWIR
Origin: India, Maharashtra, Poona
Measurement: Hemispherical reflectance
X Units: Wavelength (micrometers)
Y Units: Reflectance (percent)
wavelength	value
0.4	76.94
0.403	77.16
0.406	77.23
0.409	77.36
0.412	77.5
0.415	77.56
0.418	77.59
0.421	77.52
0.424	77.85
0.427	77.92
0.43	77.99
0.433	78.15
0.436	78.16
0.439	78.4
0.442	78.47
0.445	78.52
0.448	78.77
0.451	78.87
0.454	79.1
0.457	79.33
0.46	79.36
0.463	79.55
0.466	79.51
0.469	79.79
0.472	79.88
0.475	80.14
0.478	80.2
0.481	80.26
0.484	80.55
0.487	80.6
0.49	80.6
0.493	80.83
0.496	80.95
0.499	81.05
0.502	81.27
0.505	81.39
0.508	81.44
0.511	81.84
0.514	81.8
0.517	82.01
0.52	82.15
0.523	82.06
0.526	82.24
0.529	82.24
0.532	82.28
0.535	82.33
0.538	82.31
0.541	82.64
0.544	82.66
0.547	82.72
0.55	82.91
0.553	82.87
0.556	82.97
0.559	82.99
0.562	83.56
0.565	83.54
0.568	83.31
0.571	83.38
0.574	83.2
0.577	83.15
0.58	83.33
0.583	83.25
0.586	83.39
0.589	83.32
0.592	83.33
0.595	83.46
0.598	83.5
0.601	83.67
0.604	83.63
0.607	83.5
0.61	83.77
0.613	83.58
0.616	83.68
0.619	83.51
0.622	83.6
0.625	83.7
0.628	83.61
0.631	83.73
0.634	83.7
0.637	83.7
0.64	83.7
0.643	83.55
0.646	83.67
0.649	83.52
0.652	83.65
0.655	83.77
0.658	83.65
0.661	83.75
0.664	83.7
0.667	83.73
0.67	83.77
0.673	83.79
0.676	83.89
0.679	83.8
0.682	83.73
0.685	83.88
0.688	83.72
0.691	83.87
0.694	83.91
0.697	83.81
0.7	83.85
0.703	83.78
0.706	83.65
0.709	83.73
0.712	83.8
0.715	83.84
0.718	83.71
0.721	83.78
0.724	83.83
0.727	83.85
0.73	83.91
0.733	83.98
0.736	84.01
0.739	83.85
0.742	84.01
0.745	83.92
0.748	83.78
0.751	83.96
0.754	83.85
0.757	83.98
0.76	83.96
0.763	83.76
0.766	84.09
0.769	84.03
0.772	83.95
0.775	84.15
0.778	83.98
0.781	84.05
0.784	84
0.787	83.88
0.79	84.07
0.793	84.06
0.796	84.19
0.799	84.21
0.808	84.11
0.82	84.19
0.832	84.16
0.844	84.3
0.856	84.35
0.868	84.27
0.88	84.27
0.892	84.26
0.904	84.2
0.916	84.14
0.928	84.21
0.94	84.19
0.952	84.18
0.964	84.07
0.976	83.88
0.988	83.92
1	84.01
1.012	84.16
1.024	84.17
1.036	84.21
1.048	84.27
1.06	84.35
1.072	84.27
1.084	84.27
1.096	84.37
1.108	84.34
1.12	84.32
1.132	84.34
1.144	84.12
1.156	83.65
1.168	83.44
1.18	83.31
1.192	83.5
1.204	83.59
1.216	83.49
1.228	83.49
1.24	83.53
1.252	83.59
1.264	83.53
1.276	83.62
1.288	83.67
1.3	83.57
1.312	83.25
1.324	82.45
1.336	81.8
1.348	81.71
1.36	81.96
1.372	81.9
1.384	81.27
1.396	79.99
1.408	77.55
1.42	74.66
1.432	73.25
1.444	71.2
1.456	69.78
1.468	74.47
1.48	74.31
1.492	75.54
1.504	77.34
1.516	77.87
1.528	78.05
1.54	77.83
1.552	77.36
1.564	77.5
1.576	77.65
1.588	77.43
1.6	77.41
1.612	77.68
1.624	77.94
1.636	78.35
1.648	78.81
1.66	79.27
1.672	79.66
1.684	79.94
1.696	80.16
1.708	80.27
1.72	80.21
1.732	80.08
1.744	79.95
1.756	79.05
1.768	78.72
1.78	79.41
1.792	79.19
1.804	78.61
1.816	78.3
1.828	78.78
1.84	78.91
1.852	78.49
1.864	76.92
1.876	72.78
1.888	65.96
1.9	58.63
1.912	51.39
1.924	41.75
1.936	35.52
1.948	42.87
1.96	52.74
1.972	55.59
1.984	54.28
1.996	52.58
2.008	52.56
2.02	55.24
2.032	58.99
2.044	61.88
2.056	62.94
2.068	62.96
2.08	63.04
2.092	64.64
2.104	67.17
2.116	69.14
2.128	69.93
2.14	69.97
2.152	69.38
2.164	68.87
2.176	67.96
2.188	66.91
2.2	67.29
2.212	69.27
2.224	71.33
2.236	72.62
2.248	72.86
2.26	72.72
2.272	72.77
2.284	72.96
2.296	73.04
2.308	72.66
2.32	71.85
2.332	70.63
2.344	69.3
2.356	68.02
2.368	66.39
2.38	64.67
2.392	62.09
2.404	58.16
2.416	53.9
2.428	51.81
2.44	52.02
2.452	53.45
2.464	55.62
2.476	57.96
2.488	60.37
2.5	61.93
