Name: Labradorite (Feldspar) (NaSi,CaAl)AlSi_2O_8
Type: Mineral
Class: Silicates
Subclass: Tectosilicates
Particle Size: 45-125um
Sample No.: TS-2B
Owner: JPL
Wavelength Range: VNIR-SWIR
Origin: Canada, Quebec, Lake St. John
Measurement: Hemispherical reflectance
X Units: Wavelength (micrometers)
Y Units: Reflectance (percent)
wavelength	value
0.4	23
0.403	22.98
0.406	23.02
0.409	23.2
0.412	23.16
0.415	23.07
0.418	23.17
0.421	23.19
0.424	23.22
0.427	23.06
0.43	23.17
0.433	23.28
0.436	23.13
0.439	23.02
0.442	23.14
0.445	23.22
0.448	22.98
0.451	23.07
0.454	23.31
0.457	23.27
0.46	23.1
0.463	23.13
0.466	23.21
0.469	23.34
0.472	23.21
0.475	23.05
0.478	23.24
0.481	23.13
0.484	23.08
0.487	23.17
0.49	23.26
0.493	23.29
0.496	23.17
0.499	23.27
0.502	23.36
0.505	23.22
0.508	23.26
0.511	23.36
0.514	23.32
0.517	23.32
0.52	23.3
0.523	23.32
0.526	23.29
0.529	23.38
0.532	23.29
0.535	23.38
0.538	23.45
0.541	23.42
0.544	23.4
0.547	23.62
0.55	23.64
0.553	23.71
0.556	23.74
0.559	23.92
0.562	24.09
0.565	24.22
0.568	24.13
0.571	24.19
0.574	24.35
0.577	24.39
0.58	24.34
0.583	24.37
0.586	24.56
0.589	24.61
0.592	24.59
0.595	24.67
0.598	24.96
0.601	25.1
0.604	25.01
0.607	25.16
0.61	25.3
0.613	25.33
0.616	25.47
0.619	25.49
0.622	25.56
0.625	25.62
0.628	25.68
0.631	25.86
0.634	25.89
0.637	25.98
0.64	26.03
0.643	26.16
0.646	26.1
0.649	26.24
0.652	26.39
0.655	26.37
0.658	26.52
0.661	26.63
0.664	26.83
0.667	26.84
0.67	26.91
0.673	27.08
0.676	27.42
0.679	27.33
0.682	27.51
0.685	27.6
0.688	27.8
0.691	27.76
0.694	27.94
0.697	28.22
0.7	28.24
0.703	28.31
0.706	28.5
0.709	28.62
0.712	28.9
0.715	28.96
0.718	28.99
0.721	29.24
0.724	29.49
0.727	29.58
0.73	29.64
0.733	29.91
0.736	30.2
0.739	30.41
0.742	30.29
0.745	30.49
0.748	30.75
0.751	30.76
0.754	30.8
0.757	30.92
0.76	31.13
0.763	31.19
0.766	31.34
0.769	31.44
0.772	31.63
0.775	31.7
0.778	31.78
0.781	31.85
0.784	32.09
0.787	32.22
0.79	32.26
0.793	32.2
0.796	32.42
0.799	32.61
0.808	33.11
0.82	33.42
0.832	33.68
0.844	33.91
0.856	34.16
0.868	34.35
0.88	34.55
0.892	34.61
0.904	34.74
0.916	34.88
0.928	34.95
0.94	35.03
0.952	35.01
0.964	34.95
0.976	34.92
0.988	34.82
1	34.76
1.012	34.56
1.024	34.47
1.036	34.24
1.048	34.13
1.06	33.93
1.072	33.77
1.084	33.58
1.096	33.49
1.108	33.3
1.12	33.14
1.132	33.05
1.144	32.8
1.156	32.7
1.168	32.61
1.18	32.36
1.192	32.24
1.204	32.23
1.216	31.96
1.228	31.96
1.24	31.97
1.252	31.76
1.264	31.71
1.276	31.62
1.288	31.65
1.3	31.53
1.312	31.44
1.324	31.41
1.336	31.33
1.348	31.39
1.36	31.37
1.372	31.33
1.384	31.19
1.396	31.02
1.408	31.04
1.42	31.11
1.432	31.15
1.444	31.25
1.456	31.11
1.468	31.24
1.48	31.2
1.492	31.24
1.504	31.13
1.516	31.2
1.528	31.26
1.54	31.3
1.552	31.3
1.564	31.3
1.576	31.42
1.588	31.4
1.6	31.45
1.612	31.41
1.624	31.42
1.636	31.52
1.648	31.55
1.66	31.7
1.672	31.63
1.684	31.72
1.696	31.77
1.708	31.84
1.72	31.92
1.732	31.92
1.744	31.96
1.756	32
1.768	32.08
1.78	32.15
1.792	32.25
1.804	32.27
1.816	32.37
1.828	32.42
1.84	32.45
1.852	32.47
1.864	32.57
1.876	32.58
1.888	32.53
1.9	32.49
1.912	32.58
1.924	32.62
1.936	32.71
1.948	32.78
1.96	32.98
1.972	33.05
1.984	33.24
1.996	33.4
2.008	33.56
2.02	33.66
2.032	33.74
2.044	33.83
2.056	33.93
2.068	34.06
2.08	34.16
2.092	34.32
2.104	34.39
2.116	34.47
2.128	34.59
2.14	34.72
2.152	34.77
2.164	34.71
2.176	34.76
2.188	34.73
2.2	34.76
2.212	34.8
2.224	35.01
2.236	35.13
2.248	35.14
2.26	35.19
2.272	35.3
2.284	35.47
2.296	35.55
2.308	35.68
2.32	35.78
2.332	35.87
2.344	35.91
2.356	36.05
2.368	36.15
2.38	36.17
2.392	36.26
2.404	36.37
2.416	36.45
2.428	36.49
2.44	36.49
2.452	36.55
2.464	36.63
2.476	36.68
2.488	36.89
2.5	37.06
