Name: Nontronite Na_0.33Fe_2^3+(Si,Al)_4O_10(OH)_2.H_2O
Type: Mineral
Class: Silicates
Subclass: Phyllosilicates
Particle Size: 125-500um
Sample No.: PS-6B
Owner: JPL
Wavelength Range: VNIR-SWIR
Origin: Germany, Westphalia, Hohen Hagen
Measurement: Hemispherical reflectance
X Units: Wavelength (micrometers)
Y Units: Reflectance (percent)
wavelength	value
0.4	6.79
0.403	7.17
0.406	7.09
0.409	7.31
0.412	7.39
0.415	7.4
0.418	7.8
0.421	7.63
0.424	7.79
0.427	7.97
0.43	8.13
0.433	8.33
0.436	8.33
0.439	8.68
0.442	8.74
0.445	8.87
0.448	9.16
0.451	9.26
0.454	9.57
0.457	9.76
0.46	10.01
0.463	10.22
0.466	10.45
0.469	10.85
0.472	11.06
0.475	11.44
0.478	11.64
0.481	11.89
0.484	12.19
0.487	12.4
0.49	12.73
0.493	13.01
0.496	13.47
0.499	13.72
0.502	13.98
0.505	14.48
0.508	14.83
0.511	15.24
0.514	15.92
0.517	16.27
0.52	16.88
0.523	17.59
0.526	18.32
0.529	18.91
0.532	19.74
0.535	20.62
0.538	21.61
0.541	22.36
0.544	23.27
0.547	24.21
0.55	25.04
0.553	25.9
0.556	26.8
0.559	27.28
0.562	28.4
0.565	28.94
0.568	29.51
0.571	30.03
0.574	30.5
0.577	30.78
0.58	31.18
0.583	31.39
0.586	31.83
0.589	32.11
0.592	32.17
0.595	32.31
0.598	32.54
0.601	32.68
0.604	32.8
0.607	32.85
0.61	32.73
0.613	32.9
0.616	32.99
0.619	32.96
0.622	32.94
0.625	32.94
0.628	33.06
0.631	33.13
0.634	33.27
0.637	33.2
0.64	33.45
0.643	33.58
0.646	33.52
0.649	33.77
0.652	33.78
0.655	33.92
0.658	34.09
0.661	34.28
0.664	34.5
0.667	34.62
0.67	34.88
0.673	34.99
0.676	35.39
0.679	35.58
0.682	35.78
0.685	35.95
0.688	36.25
0.691	36.58
0.694	36.88
0.697	37.22
0.7	37.26
0.703	37.7
0.706	37.93
0.709	38.2
0.712	38.43
0.715	38.83
0.718	38.91
0.721	39.07
0.724	39.32
0.727	39.53
0.73	39.83
0.733	39.94
0.736	40.12
0.739	40.14
0.742	40.27
0.745	40.56
0.748	40.55
0.751	40.71
0.754	40.71
0.757	40.74
0.76	40.89
0.763	40.8
0.766	40.81
0.769	40.81
0.772	40.84
0.775	40.87
0.778	40.92
0.781	40.79
0.784	40.71
0.787	40.68
0.79	40.49
0.793	40.57
0.796	40.49
0.799	40.37
0.808	40.18
0.82	39.71
0.832	39.24
0.844	38.91
0.856	38.65
0.868	38.45
0.88	38.23
0.892	38.22
0.904	38.25
0.916	38.33
0.928	38.58
0.94	38.9
0.952	39.22
0.964	39.69
0.976	40.08
0.988	40.57
1	41.02
1.012	41.76
1.024	42.45
1.036	43.18
1.048	43.9
1.06	44.71
1.072	45.44
1.084	46.24
1.096	47.01
1.108	47.84
1.12	48.56
1.132	49.31
1.144	49.88
1.156	50.39
1.168	51
1.18	51.59
1.192	51.95
1.204	52.32
1.216	52.55
1.228	52.81
1.24	52.95
1.252	53.26
1.264	53.4
1.276	53.59
1.288	53.71
1.3	53.84
1.312	53.86
1.324	53.84
1.336	53.9
1.348	53.79
1.36	53.78
1.372	53.58
1.384	52.72
1.396	50.94
1.408	49.2
1.42	48.76
1.432	48.83
1.444	50.19
1.456	50.72
1.468	51.19
1.48	51.79
1.492	52.27
1.504	52.58
1.516	52.99
1.528	53.26
1.54	53.46
1.552	53.71
1.564	53.88
1.576	53.94
1.588	54.13
1.6	54.19
1.612	54.23
1.624	54.28
1.636	54.31
1.648	54.37
1.66	54.37
1.672	54.44
1.684	54.55
1.696	54.62
1.708	54.68
1.72	54.57
1.732	54.55
1.744	54.47
1.756	54.33
1.768	54.2
1.78	54.17
1.792	54.2
1.804	54.28
1.816	54.24
1.828	54.23
1.84	54.26
1.852	53.81
1.864	52.95
1.876	50.63
1.888	46.5
1.9	41.95
1.912	40.92
1.924	42.05
1.936	43.18
1.948	44.02
1.96	44.73
1.972	45.67
1.984	46.78
1.996	47.91
2.008	48.73
2.02	49.64
2.032	50.31
2.044	50.79
2.056	51.17
2.068	51.56
2.08	51.85
2.092	52.18
2.104	52.5
2.116	52.83
2.128	52.89
2.14	52.77
2.152	52.43
2.164	51.91
2.176	51.15
2.188	50.3
2.2	49.73
2.212	49.4
2.224	49.42
2.236	49.32
2.248	48.92
2.26	48.01
2.272	46.65
2.284	45.94
2.296	46.68
2.308	47.8
2.32	48.41
2.332	48.34
2.344	48.08
2.356	47.54
2.368	46.83
2.38	45.79
2.392	44.88
2.404	44.35
2.416	43.84
2.428	43.34
2.44	42.67
2.452	41.83
2.464	41.05
2.476	40.17
2.488	39.51
2.5	39.11
