Name: Dickite Al_2Si_2O_5(OH)_4
Type: Mineral
Class: Silicates
Subclass: Phyllosilicates
Particle Size: 0-45um
Sample No.: PS-3A
Owner: JPL
Origin: Mexico, San Juanito.
Measurement: Hemispherical reflectance
X Units: Wavelength (micrometers)
Y Units: Reflectance (percent)
wavelength	value
2.5	43.7931
2.494	44.3774
2.488	44.8222
2.482	45.3569
2.476	46.0829
2.47	47.1573
2.464	47.8611
2.458	48.3833
2.452	48.4841
2.446	48.7442
2.44	49.0964
2.434	49.6305
2.428	50.6702
2.422	51.5206
2.416	52.1942
2.41	52.2999
2.404	51.953
2.398	51.1275
2.392	50.0339
2.386	49.1572
2.38	49.1415
2.374	50.2006
2.368	51.7543
2.362	52.7978
2.356	53.2213
2.35	53.6223
2.344	54.6585
2.338	55.9237
2.332	57.0373
2.326	57.5741
2.32	57.7056
2.314	57.6194
2.308	57.6536
2.302	58.0219
2.296	58.9668
2.29	60.5148
2.284	62.2978
2.278	63.7842
2.272	64.6354
2.266	64.9062
2.26	64.8314
2.254	65.0634
2.248	65.978
2.242	67.2264
2.236	67.5776
2.23	66.6368
2.224	63.8235
2.218	59.0882
2.212	52.5795
2.206	47.4929
2.2	48.5583
2.194	52.406
2.188	51.778
2.182	48.4967
2.176	48.5742
2.17	51.7407
2.164	55.734
2.158	59.4438
2.152	62.3193
2.146	64.4484
2.14	66.9752
2.134	69.6261
2.128	71.6403
2.122	72.5359
2.116	72.2459
2.11	72.2218
2.104	73.4937
2.098	74.3942
2.092	74.815
2.086	75.4865
2.08	76.3945
2.074	77.2884
2.068	77.9682
2.062	78.3822
2.056	78.893
2.05	79.703
2.044	80.4252
2.038	80.9085
2.032	81.3884
2.026	81.7942
2.02	82.1953
2.014	82.5038
2.008	82.712
2.002	82.9053
1.996	82.9126
1.99	83.0404
1.984	83.06
1.978	83.1902
1.972	83.1193
1.966	83.1203
1.96	83.0865
1.954	83.0354
1.948	83.1511
1.942	83.2421
1.936	83.3171
1.93	83.7695
1.924	83.9745
1.918	84.3047
1.912	84.6096
1.906	85.0405
1.9	85.5454
1.894	86.0315
1.888	86.4439
1.882	86.747
1.876	86.9522
1.87	87.1997
1.864	87.2366
1.858	87.2483
1.852	86.9887
1.846	86.1797
1.84	85.4106
1.834	85.2401
1.828	85.1441
1.822	85.2632
1.816	85.4778
1.81	85.5025
1.804	85.5231
1.798	85.5537
1.792	85.7883
1.786	86.1945
1.78	86.7853
1.774	87.2735
1.768	87.6516
1.762	88.0591
1.756	88.1211
1.75	88.3108
1.744	88.4621
1.738	88.6505
1.732	88.9067
1.726	89.3227
1.72	89.3902
1.714	89.5537
1.708	89.6418
1.702	89.8307
1.696	89.8842
1.69	90.0822
1.684	90.1467
1.678	90.322
1.672	90.3287
1.666	90.3649
1.66	90.4507
1.654	90.5426
1.648	90.5936
1.642	90.7609
1.636	90.8493
1.63	90.8068
1.624	90.8754
1.618	90.849
1.612	91.0163
1.606	91.1933
1.6	91.1764
1.594	91.1409
1.588	91.2317
1.582	91.1578
1.576	91.2452
1.57	91.1877
1.564	91.1284
1.558	91.0615
1.552	91.1188
1.546	91.1178
1.54	91.0689
1.534	91.0575
1.528	90.9816
1.522	90.954
1.516	90.9145
1.51	90.8152
1.504	90.7938
1.498	90.7605
1.492	90.7776
1.486	90.7389
1.48	90.7601
1.474	90.7004
1.468	90.3884
1.462	90.1831
1.456	89.7011
1.45	88.863
1.444	88.0583
1.438	87.2232
1.432	84.9667
1.426	78.7516
1.42	64.5478
1.414	54.5075
1.408	70.4873
1.402	77.639
1.396	77.0662
1.39	71.0629
1.384	63.0866
1.378	69.6536
1.372	76.799
1.366	79.501
1.36	79.8456
1.354	82.6899
1.348	84.0804
1.342	85.0992
1.336	85.5722
1.33	85.5129
1.324	85.5763
1.318	85.8187
1.312	85.6955
1.306	85.5436
1.3	86.8704
1.294	87.969
1.288	88.7304
1.282	89.4399
1.276	89.7842
1.27	90.057
1.264	90.195
1.258	89.8943
1.252	89.5764
1.246	89.2809
1.24	89.6545
1.234	90.0202
1.228	90.4507
1.222	90.6461
1.216	90.9123
1.21	91.0419
1.204	91.1915
1.198	91.1344
1.192	91.1029
1.186	91.2139
1.18	91.1724
1.174	91.1468
1.168	91.1785
1.162	91.1573
1.156	91.134
1.15	91.1526
1.144	91.0342
1.138	90.8474
1.132	90.8404
1.126	90.861
1.12	90.69
1.114	90.5382
1.108	90.475
1.102	90.4012
1.096	90.3817
1.09	90.2796
1.084	90.098
1.078	90.0146
1.072	89.9784
1.066	89.789
1.06	89.7862
1.054	89.6528
1.048	89.5577
1.042	89.3342
1.036	89.1875
1.03	89.1235
1.024	88.9598
1.018	88.8796
1.012	88.6819
1.006	88.5362
1	88.3611
0.994	88.2544
0.988	88.0794
0.982	87.7481
0.976	87.0601
0.97	86.3047
0.964	85.6422
0.958	86.7515
0.952	86.3871
0.946	85.9592
0.94	86.1764
0.934	86.3735
0.928	86.3115
0.922	86.3878
0.916	86.175
0.91	86.2063
0.904	86.1871
0.898	86.1755
0.892	86.2024
0.886	86.1795
0.88	86.1452
0.874	86.1221
0.868	86.1664
0.862	86.0559
0.856	86.1723
0.85	86.2262
0.844	86.2963
0.838	86.3405
0.832	86.4009
0.826	86.4694
0.82	86.5217
0.814	86.6401
0.808	86.7038
0.802	86.742
0.796	86.7495
0.79	86.8279
0.784	86.8611
0.778	86.8758
0.772	86.9328
0.766	86.9139
0.76	86.8654
0.754	86.7974
0.748	86.7147
0.742	86.565
0.736	86.463
0.73	86.2842
0.724	86.0545
0.718	85.7881
0.712	85.5384
0.706	85.2172
0.7	84.9078
0.694	84.6152
0.688	84.2743
0.682	83.9628
0.676	83.6503
0.67	83.3618
0.664	83.0517
0.658	82.7116
0.652	82.4578
0.646	82.1907
0.64	81.9225
0.634	81.6512
0.628	81.3578
0.622	81.0602
0.616	80.7464
0.61	80.4272
0.604	80.0948
0.598	79.7389
0.592	79.3541
0.586	78.9247
0.58	78.4315
0.574	77.8663
0.568	77.2778
0.562	76.65
0.556	75.9331
0.55	75.1602
0.544	74.3739
0.538	73.5378
0.532	72.7122
0.526	71.8851
0.52	71.1046
0.514	70.3592
0.508	69.5975
0.502	68.9084
0.496	68.2331
0.49	67.619
0.484	67.0685
0.478	66.6237
0.472	66.2559
0.466	65.8764
0.46	65.4643
0.454	65.006
0.448	64.5007
0.442	63.8219
0.436	63.0448
0.43	62.2516
0.424	61.5509
0.418	60.8761
0.412	60.2484
0.406	59.5868
0.4	58.8778
