Name: Trona Na_3(CO_3)(HCO_3).2H_2O
Type: Mineral
Class: Carbonates
Particle Size: 0-45um
Sample No.: C-4A
Owner: JPL
Origin: USA, Wyoming, Sweetwater County.
Measurement: Hemispherical reflectance
X Units: Wavelength (micrometers)
Y Units: Reflectance (percent)
wavelength	value
2.5	24.2564
2.494	24.3222
2.488	24.3249
2.482	24.4397
2.476	24.5826
2.47	24.6247
2.464	24.7481
2.458	24.8274
2.452	24.8105
2.446	25.0129
2.44	25.0333
2.434	25.1759
2.428	25.2607
2.422	25.2766
2.416	25.3853
2.41	25.4367
2.404	25.3995
2.398	25.6076
2.392	25.7871
2.386	26.0978
2.38	26.5894
2.374	27.1411
2.368	27.6948
2.362	28.1583
2.356	28.7031
2.35	29.1024
2.344	29.4527
2.338	29.7871
2.332	30.0631
2.326	30.3846
2.32	30.7113
2.314	31.0428
2.308	31.3618
2.302	31.7035
2.296	31.9583
2.29	32.2052
2.284	32.504
2.278	32.6801
2.272	32.9239
2.266	33.0547
2.26	33.1348
2.254	33.2085
2.248	33.2454
2.242	33.2433
2.236	33.0165
2.23	32.6761
2.224	32.3561
2.218	32.3822
2.212	32.6251
2.206	32.8807
2.2	33.0573
2.194	33.1133
2.188	33.2541
2.182	33.435
2.176	33.4937
2.17	33.5752
2.164	33.6215
2.158	33.5808
2.152	33.565
2.146	33.4705
2.14	33.3089
2.134	33.0883
2.128	32.8591
2.122	32.611
2.116	32.1653
2.11	31.7448
2.104	31.3548
2.098	30.876
2.092	30.5033
2.086	30.1612
2.08	29.7482
2.074	29.3886
2.068	28.9688
2.062	28.7005
2.056	28.3815
2.05	28.2057
2.044	28.1139
2.038	28.2501
2.032	28.5475
2.026	29.1111
2.02	29.7249
2.014	30.3347
2.008	30.7379
2.002	31.1162
1.996	31.2847
1.99	31.2106
1.984	31.0252
1.978	30.6922
1.972	30.0702
1.966	29.1685
1.96	28.0346
1.954	26.8861
1.948	26.26
1.942	26.2341
1.936	27.0092
1.93	28.857
1.924	31.4059
1.918	34.307
1.912	36.8679
1.906	39.2527
1.9	41.5553
1.894	43.3957
1.888	44.7981
1.882	46.0533
1.876	46.9367
1.87	47.8508
1.864	48.5855
1.858	49.2082
1.852	49.7032
1.846	50.0854
1.84	50.4389
1.834	50.7125
1.828	50.8389
1.822	50.977
1.816	51.1077
1.81	51.1445
1.804	51.2634
1.798	51.3513
1.792	51.4169
1.786	51.4733
1.78	51.5622
1.774	51.6649
1.768	51.658
1.762	51.6423
1.756	51.7439
1.75	51.8253
1.744	51.9214
1.738	52.1972
1.732	52.6103
1.726	53.0597
1.72	53.608
1.714	54.156
1.708	54.6797
1.702	55.1806
1.696	55.7199
1.69	56.2496
1.684	56.738
1.678	57.4052
1.672	58.0102
1.666	58.6274
1.66	59.231
1.654	59.8905
1.648	60.4301
1.642	61.0261
1.636	61.4613
1.63	61.9098
1.624	62.3913
1.618	63.3938
1.612	63.1532
1.606	63.5489
1.6	63.9073
1.594	64.1333
1.588	64.4153
1.582	64.5395
1.576	64.5175
1.57	64.4192
1.564	64.1199
1.558	63.6429
1.552	62.9253
1.546	62.0497
1.54	61.0493
1.534	60.3198
1.528	60.0502
1.522	60.2424
1.516	60.3421
1.51	60.6393
1.504	60.9809
1.498	61.5447
1.492	62.216
1.486	63.0586
1.48	64.0302
1.474	65.1458
1.468	66.2501
1.462	67.541
1.456	68.8033
1.45	70.1
1.444	71.6865
1.438	73.3097
1.432	75.0052
1.426	76.6025
1.42	77.8952
1.414	78.8222
1.408	79.6173
1.402	80.1837
1.396	80.7103
1.39	81.0755
1.384	81.2776
1.378	81.386
1.372	81.6149
1.366	81.7861
1.36	81.7639
1.354	81.8209
1.348	81.9729
1.342	82.083
1.336	82.2956
1.33	82.5534
1.324	82.6888
1.318	82.9607
1.312	83.2008
1.306	83.4183
1.3	83.6212
1.294	83.7937
1.288	84.0148
1.282	83.9815
1.276	83.9016
1.27	83.9102
1.264	83.8518
1.258	83.7738
1.252	83.6164
1.246	83.5269
1.24	83.5031
1.234	83.4774
1.228	83.518
1.222	83.6432
1.216	83.6463
1.21	83.7028
1.204	83.8076
1.198	83.9896
1.192	84.2377
1.186	84.4633
1.18	84.785
1.174	85.1944
1.168	85.561
1.162	86.034
1.156	86.3093
1.15	86.5725
1.144	86.864
1.138	86.9752
1.132	87.0746
1.126	87.1806
1.12	87.1534
1.114	87.1976
1.108	87.2428
1.102	87.1875
1.096	87.2989
1.09	87.2894
1.084	87.2573
1.078	87.2452
1.072	87.146
1.066	87.2301
1.06	87.2206
1.054	87.2536
1.048	87.122
1.042	87.0362
1.036	87.055
1.03	86.9063
1.024	86.8873
1.018	86.898
1.012	86.8132
1.006	86.8492
1	86.9093
0.994	86.8661
0.988	86.9122
0.982	87.0478
0.976	87.0465
0.97	87.1398
0.964	87.2827
0.958	87.2735
0.952	87.3199
0.946	87.2734
0.94	87.3481
0.934	87.2862
0.928	87.2494
0.922	87.2352
0.916	87.2144
0.91	87.1784
0.904	87.1195
0.898	87.1475
0.892	86.9705
0.886	87.0336
0.88	86.9506
0.874	86.9423
0.868	86.996
0.862	87.0403
0.856	87.3226
0.85	87.2221
0.844	87.3413
0.838	87.2625
0.832	87.3029
0.826	87.2376
0.82	87.1784
0.814	87.1525
0.808	87.1457
0.802	87.0754
0.796	86.919
0.79	86.8544
0.784	86.7932
0.778	86.7187
0.772	86.6806
0.766	86.6014
0.76	86.4963
0.754	86.4698
0.748	86.4103
0.742	86.3232
0.736	86.267
0.73	86.191
0.724	86.0934
0.718	86.0222
0.712	85.9223
0.706	85.8302
0.7	85.7546
0.694	85.6289
0.688	85.5476
0.682	85.4279
0.676	85.3246
0.67	85.2161
0.664	85.1078
0.658	84.9705
0.652	84.8279
0.646	84.6869
0.64	84.5169
0.634	84.3606
0.628	84.1808
0.622	83.9981
0.616	83.8202
0.61	83.5957
0.604	83.4197
0.598	83.206
0.592	83.0256
0.586	82.7849
0.58	82.5186
0.574	82.218
0.568	81.9192
0.562	81.605
0.556	81.2611
0.55	80.9345
0.544	80.5895
0.538	80.2536
0.532	79.8743
0.526	79.4758
0.52	79.0558
0.514	78.6388
0.508	78.18
0.502	77.6804
0.496	77.1835
0.49	76.6407
0.484	76.0583
0.478	75.5165
0.472	74.9525
0.466	74.392
0.46	73.7646
0.454	73.1068
0.448	72.4021
0.442	71.6049
0.436	70.8154
0.43	69.9752
0.424	69.1183
0.418	68.2731
0.412	67.4126
0.406	66.5946
0.4	65.8193
