Name: Aphthitalite (K,Na)_3Na(SO_4)_2
Type: Mineral
Class: Sulfates
Particle Size: 45-125um
Sample No.: SO-9A
Owner: JPL
Origin: USA, California, San Bernadino County, Searles Lake.
Measurement: Hemispherical reflectance
X Units: Wavelength (micrometers)
Y Units: Reflectance (percent)
wavelength	value
2.5	80.096
2.494	79.8593
2.488	79.9095
2.482	80.0481
2.476	80.2168
2.47	80.5621
2.464	80.419
2.458	80.5956
2.452	80.7889
2.446	80.7771
2.44	80.9323
2.434	81.0166
2.428	81.1658
2.422	81.26
2.416	81.4544
2.41	81.564
2.404	81.6017
2.398	81.8085
2.392	82.0321
2.386	82.1472
2.38	82.2886
2.374	82.5141
2.368	82.7536
2.362	82.9807
2.356	83.0506
2.35	83.2699
2.344	83.316
2.338	83.4326
2.332	83.4393
2.326	83.4406
2.32	83.5063
2.314	83.488
2.308	83.4735
2.302	83.5536
2.296	83.5947
2.29	83.5877
2.284	83.7623
2.278	83.716
2.272	83.758
2.266	83.7918
2.26	83.806
2.254	83.7325
2.248	83.8308
2.242	83.8329
2.236	83.9455
2.23	83.8216
2.224	83.8523
2.218	83.8643
2.212	84.0267
2.206	84.1867
2.2	84.377
2.194	84.4361
2.188	84.4811
2.182	84.5389
2.176	84.7404
2.17	84.7664
2.164	84.8942
2.158	85.0574
2.152	85.0601
2.146	85.0758
2.14	85.073
2.134	85.0218
2.128	84.864
2.122	84.5698
2.116	84.2829
2.11	83.9397
2.104	83.6618
2.098	83.4273
2.092	83.4536
2.086	83.4882
2.08	83.5536
2.074	83.4914
2.068	83.4648
2.062	83.536
2.056	83.4861
2.05	83.5299
2.044	83.5815
2.038	83.5708
2.032	83.6187
2.026	83.7022
2.02	83.6815
2.014	83.7199
2.008	83.7402
2.002	83.7877
1.996	83.6857
1.99	83.5436
1.984	83.3473
1.978	83.1985
1.972	83.0546
1.966	82.8523
1.96	82.6488
1.954	82.4932
1.948	82.2623
1.942	82.2427
1.936	82.2931
1.93	82.5163
1.924	82.9368
1.918	83.4016
1.912	83.9067
1.906	84.3221
1.9	84.9469
1.894	85.634
1.888	85.8498
1.882	86.2659
1.876	86.4179
1.87	86.5709
1.864	86.6571
1.858	86.7191
1.852	86.8547
1.846	86.9408
1.84	86.895
1.834	86.9717
1.828	86.9636
1.822	87.0587
1.816	86.9574
1.81	87.0773
1.804	87.0137
1.798	87.0754
1.792	87.0616
1.786	87.1034
1.78	87.0902
1.774	87.1769
1.768	87.0569
1.762	87.0794
1.756	87.1235
1.75	87.1334
1.744	87.1966
1.738	87.2558
1.732	87.2767
1.726	87.3164
1.72	87.2981
1.714	87.3698
1.708	87.3856
1.702	87.3651
1.696	87.4155
1.69	87.4008
1.684	87.4911
1.678	87.4041
1.672	87.4643
1.666	87.5392
1.66	87.6043
1.654	87.5482
1.648	87.5764
1.642	87.7371
1.636	87.7127
1.63	87.6298
1.624	87.6594
1.618	87.8071
1.612	87.701
1.606	87.6631
1.6	87.7667
1.594	87.7222
1.588	87.721
1.582	87.6955
1.576	87.7567
1.57	87.7168
1.564	87.7343
1.558	87.7448
1.552	87.7087
1.546	87.661
1.54	87.6129
1.534	87.5848
1.528	87.5736
1.522	87.5291
1.516	87.4703
1.51	87.5055
1.504	87.5446
1.498	87.5206
1.492	87.4532
1.486	87.4597
1.48	87.4476
1.474	87.5404
1.468	87.484
1.462	87.5552
1.456	87.5035
1.45	87.583
1.444	87.572
1.438	87.6523
1.432	87.6931
1.426	87.6779
1.42	87.7283
1.414	87.8164
1.408	87.865
1.402	88.0021
1.396	88.1577
1.39	88.1409
1.384	88.0933
1.378	88.1258
1.372	88.2052
1.366	88.1184
1.36	88.1417
1.354	88.2403
1.348	88.2311
1.342	88.0906
1.336	88.1801
1.33	88.2143
1.324	88.1309
1.318	88.1197
1.312	88.1418
1.306	88.0632
1.3	88.1868
1.294	88.1619
1.288	88.1372
1.282	88.1173
1.276	88.1236
1.27	88.1184
1.264	88.1714
1.258	88.1223
1.252	88.1357
1.246	88.079
1.24	88.0506
1.234	88.0689
1.228	87.9865
1.222	88.0874
1.216	88.126
1.21	88.0788
1.204	88.051
1.198	88.1145
1.192	88.07
1.186	88.0667
1.18	87.9803
1.174	88.0157
1.168	88.0363
1.162	88.0979
1.156	88.1036
1.15	87.994
1.144	88.113
1.138	88.2085
1.132	88.1441
1.126	88.1697
1.12	88.1428
1.114	88.1265
1.108	88.1084
1.102	88.0103
1.096	88.1653
1.09	88.1611
1.084	88.0628
1.078	88.1299
1.072	88.1064
1.066	88.1393
1.06	88.152
1.054	88.1399
1.048	88.1153
1.042	88.1299
1.036	88.1503
1.03	88.0943
1.024	88.0793
1.018	88.1292
1.012	88.1104
1.006	88.1285
1	88.0715
0.994	88.0076
0.988	88.0577
0.982	88.0464
0.976	88.1015
0.97	88.0897
0.964	88.0884
0.958	88.0507
0.952	88.0811
0.946	88.0564
0.94	88.0529
0.934	88.0785
0.928	88.0515
0.922	88.0723
0.916	87.9952
0.91	87.944
0.904	87.907
0.898	87.9924
0.892	87.988
0.886	87.9897
0.88	88.0078
0.874	87.9009
0.868	87.9063
0.862	87.9539
0.856	87.7147
0.85	87.7894
0.844	87.7814
0.838	87.7624
0.832	87.7376
0.826	87.7526
0.82	87.835
0.814	87.8377
0.808	87.8386
0.802	87.8014
0.796	87.7443
0.79	87.7208
0.784	87.706
0.778	87.7108
0.772	87.6674
0.766	87.6405
0.76	87.6186
0.754	87.5933
0.748	87.5998
0.742	87.5792
0.736	87.5619
0.73	87.5594
0.724	87.5571
0.718	87.5017
0.712	87.4852
0.706	87.4935
0.7	87.4495
0.694	87.4444
0.688	87.4007
0.682	87.3637
0.676	87.3634
0.67	87.3137
0.664	87.2937
0.658	87.2535
0.652	87.1994
0.646	87.1864
0.64	87.1493
0.634	87.1182
0.628	87.0689
0.622	87.0314
0.616	86.9687
0.61	86.9253
0.604	86.8644
0.598	86.8608
0.592	86.8428
0.586	86.7726
0.58	86.6971
0.574	86.6243
0.568	86.5381
0.562	86.4486
0.556	86.3295
0.55	86.2189
0.544	86.1008
0.538	85.9817
0.532	85.8394
0.526	85.6984
0.52	85.5186
0.514	85.3297
0.508	85.0803
0.502	84.8651
0.496	84.5506
0.49	84.2177
0.484	83.9087
0.478	83.6553
0.472	83.3915
0.466	83.1076
0.46	82.8427
0.454	82.5317
0.448	82.1899
0.442	81.8777
0.436	81.5504
0.43	81.2338
0.424	80.8998
0.418	80.5493
0.412	80.2105
0.406	79.7928
0.4	79.3828
