Name: Pyrite FeS_2
Type: Mineral
Class: Sulfides
Particle Size: 0-45um
Sample No.: S-2A
Owner: JPL
Wavelength Range: VNIR-SWIR
Origin: Italy, Tuscany, Elba, Rio Marina Isle
Measurement: Hemispherical reflectance
X Units: Wavelength (micrometers)
Y Units: Reflectance (percent)
wavelength	value
0.4	5.29
0.403	5.32
0.406	5.31
0.409	5.42
0.412	5.42
0.415	5.49
0.418	5.54
0.421	5.61
0.424	5.72
0.427	5.77
0.43	5.76
0.433	5.84
0.436	5.9
0.439	6.07
0.442	6.07
0.445	6.13
0.448	6.13
0.451	6.28
0.454	6.34
0.457	6.49
0.46	6.47
0.463	6.61
0.466	6.59
0.469	6.76
0.472	6.92
0.475	6.88
0.478	6.99
0.481	7.07
0.484	7.18
0.487	7.24
0.49	7.26
0.493	7.33
0.496	7.42
0.499	7.57
0.502	7.6
0.505	7.53
0.508	7.64
0.511	7.7
0.514	7.79
0.517	7.87
0.52	7.79
0.523	7.77
0.526	7.83
0.529	7.89
0.532	7.97
0.535	7.93
0.538	7.94
0.541	7.92
0.544	8.02
0.547	7.98
0.55	8.05
0.553	8.02
0.556	8.06
0.559	8.11
0.562	8.19
0.565	8.24
0.568	8.29
0.571	8.23
0.574	8.22
0.577	8.18
0.58	8.27
0.583	8.26
0.586	8.23
0.589	8.22
0.592	8.17
0.595	8.28
0.598	8.32
0.601	8.27
0.604	8.25
0.607	8.31
0.61	8.37
0.613	8.31
0.616	8.28
0.619	8.25
0.622	8.25
0.625	8.31
0.628	8.38
0.631	8.36
0.634	8.26
0.637	8.37
0.64	8.33
0.643	8.42
0.646	8.43
0.649	8.42
0.652	8.4
0.655	8.54
0.658	8.51
0.661	8.54
0.664	8.46
0.667	8.6
0.67	8.54
0.673	8.6
0.676	8.56
0.679	8.56
0.682	8.59
0.685	8.76
0.688	8.67
0.691	8.67
0.694	8.65
0.697	8.65
0.7	8.68
0.703	8.64
0.706	8.7
0.709	8.72
0.712	8.63
0.715	8.65
0.718	8.6
0.721	8.66
0.724	8.64
0.727	8.58
0.73	8.55
0.733	8.53
0.736	8.52
0.739	8.54
0.742	8.46
0.745	8.46
0.748	8.41
0.751	8.46
0.754	8.41
0.757	8.35
0.76	8.28
0.763	8.35
0.766	8.34
0.769	8.35
0.772	8.22
0.775	8.17
0.778	8.16
0.781	8.17
0.784	8.22
0.787	8.15
0.79	8.21
0.793	8.1
0.796	8.06
0.799	8.09
0.808	8.35
0.82	8.12
0.832	8.05
0.844	8
0.856	7.9
0.868	7.87
0.88	7.8
0.892	7.67
0.904	7.68
0.916	7.55
0.928	7.53
0.94	7.5
0.952	7.45
0.964	7.45
0.976	7.45
0.988	7.43
1	7.37
1.012	7.31
1.024	7.35
1.036	7.33
1.048	7.33
1.06	7.36
1.072	7.36
1.084	7.36
1.096	7.37
1.108	7.38
1.12	7.4
1.132	7.48
1.144	7.53
1.156	7.59
1.168	7.64
1.18	7.64
1.192	7.76
1.204	7.76
1.216	7.82
1.228	7.96
1.24	8.1
1.252	8.23
1.264	8.33
1.276	8.49
1.288	8.68
1.3	8.84
1.312	8.96
1.324	9.1
1.336	9.34
1.348	9.43
1.36	9.75
1.372	9.93
1.384	10.18
1.396	10.44
1.408	10.57
1.42	10.89
1.432	11.11
1.444	11.37
1.456	11.67
1.468	11.78
1.48	12.05
1.492	12.19
1.504	12.23
1.516	12.3
1.528	12.38
1.54	12.49
1.552	12.59
1.564	12.6
1.576	12.65
1.588	12.72
1.6	12.62
1.612	12.55
1.624	12.56
1.636	12.49
1.648	12.41
1.66	12.31
1.672	12.3
1.684	12.2
1.696	12.11
1.708	11.99
1.72	11.91
1.732	11.84
1.744	11.72
1.756	11.45
1.768	11.43
1.78	11.31
1.792	11.25
1.804	11.09
1.816	11.03
1.828	10.9
1.84	10.79
1.852	10.7
1.864	10.65
1.876	10.52
1.888	10.4
1.9	10.35
1.912	10.25
1.924	10.12
1.936	10
1.948	9.91
1.96	9.87
1.972	9.84
1.984	9.83
1.996	9.88
2.008	9.76
2.02	9.95
2.032	9.86
2.044	9.79
2.056	9.81
2.068	9.7
2.08	9.8
2.092	9.73
2.104	9.79
2.116	9.88
2.128	9.91
2.14	9.99
2.152	9.95
2.164	9.96
2.176	9.91
2.188	9.98
2.2	10.05
2.212	10.02
2.224	10.03
2.236	10.14
2.248	10.04
2.26	10.1
2.272	10.14
2.284	10.15
2.296	10.19
2.308	10.17
2.32	10.28
2.332	10.37
2.344	10.36
2.356	10.38
2.368	10.36
2.38	10.41
2.392	10.43
2.404	10.47
2.416	10.48
2.428	10.48
2.44	10.48
2.452	10.47
2.464	10.47
2.476	10.49
2.488	10.45
2.5	10.53
