Name: Marcasite FeS_2
Type: Mineral
Class: Sulfides
Particle Size: 0-45um
Sample No.: S-10A
Owner: JPL
Origin: USA, Indiana, Jasper County, Rensselaer, Pleasant Ridge Quarry.
Measurement: Hemispherical reflectance
X Units: Wavelength (micrometers)
Y Units: Reflectance (percent)
wavelength	value
2.5	15.0758
2.494	14.9862
2.488	15.2607
2.482	16.5476
2.476	15.621
2.47	15.6514
2.464	15.794
2.458	15.954
2.452	16.0842
2.446	16.1892
2.44	16.2791
2.434	16.2843
2.428	16.2658
2.422	16.425
2.416	16.3582
2.41	16.2434
2.404	16.2002
2.398	16.2623
2.392	16.4614
2.386	16.6593
2.38	16.8025
2.374	17.0161
2.368	17.1736
2.362	17.3608
2.356	17.4808
2.35	17.5857
2.344	17.7248
2.338	17.7313
2.332	17.8139
2.326	17.8605
2.32	17.9207
2.314	17.9267
2.308	18.0141
2.302	18.0158
2.296	18.0178
2.29	18.0944
2.284	18.1057
2.278	18.1511
2.272	18.1582
2.266	18.1516
2.26	18.0953
2.254	18.0875
2.248	18.1062
2.242	17.9678
2.236	18.0055
2.23	17.9334
2.224	17.9769
2.218	17.9227
2.212	18.0293
2.206	17.9512
2.2	17.883
2.194	17.9028
2.188	17.8715
2.182	17.7847
2.176	17.7502
2.17	17.6848
2.164	17.6347
2.158	17.5726
2.152	17.4611
2.146	17.2397
2.14	17.0444
2.134	16.8121
2.128	16.5688
2.122	16.2508
2.116	16.002
2.11	15.695
2.104	15.6308
2.098	15.5628
2.092	15.5754
2.086	15.6152
2.08	15.6697
2.074	15.7161
2.068	15.7901
2.062	15.7962
2.056	15.9081
2.05	16.004
2.044	16.0603
2.038	16.1531
2.032	16.2316
2.026	16.1662
2.02	16.2442
2.014	16.2437
2.008	16.2732
2.002	16.3336
1.996	16.2568
1.99	16.2379
1.984	16.3666
1.978	16.3975
1.972	16.4572
1.966	16.5389
1.96	16.6047
1.954	16.6024
1.948	16.5074
1.942	16.4308
1.936	16.5942
1.93	16.6223
1.924	16.8923
1.918	17.0411
1.912	17.2183
1.906	17.5042
1.9	17.6605
1.894	17.7708
1.888	17.9005
1.882	17.9485
1.876	18.0999
1.87	18.0098
1.864	18.1306
1.858	18.0745
1.852	18.1622
1.846	18.0373
1.84	18.0584
1.834	18.0386
1.828	18.0623
1.822	18.0186
1.816	18.0239
1.81	18.0961
1.804	18.0593
1.798	18
1.792	17.9499
1.786	17.928
1.78	17.908
1.774	17.9178
1.768	17.8947
1.762	17.8685
1.756	17.8795
1.75	17.8368
1.744	17.8078
1.738	17.8696
1.732	17.8229
1.726	17.8546
1.72	17.8562
1.714	17.7851
1.708	17.7887
1.702	17.7283
1.696	17.8035
1.69	17.7659
1.684	17.7458
1.678	17.6968
1.672	17.7437
1.666	17.694
1.66	17.6917
1.654	17.6962
1.648	17.7211
1.642	17.7146
1.636	17.4986
1.63	17.4883
1.624	17.539
1.618	17.4758
1.612	17.4526
1.606	17.3965
1.6	17.498
1.594	17.3821
1.588	17.4502
1.582	17.3461
1.576	17.2886
1.57	17.2777
1.564	17.2589
1.558	17.1581
1.552	17.1031
1.546	17.0954
1.54	17.0247
1.534	16.9826
1.528	16.9542
1.522	16.9276
1.516	16.8831
1.51	16.8296
1.504	16.8621
1.498	16.8238
1.492	16.7618
1.486	16.8197
1.48	16.6918
1.474	16.6869
1.468	16.6546
1.462	16.6235
1.456	16.5199
1.45	16.4805
1.444	16.4304
1.438	16.4391
1.432	16.333
1.426	16.2942
1.42	16.2715
1.414	16.2186
1.408	16.1319
1.402	16.0918
1.396	16.1195
1.39	16.026
1.384	15.9107
1.378	15.8391
1.372	15.7484
1.366	15.7536
1.36	15.606
1.354	15.4963
1.348	15.4481
1.342	15.3736
1.336	15.3249
1.33	15.185
1.324	15.1348
1.318	15.0456
1.312	14.9456
1.306	15.0572
1.3	14.9258
1.294	14.8511
1.288	14.7845
1.282	14.6861
1.276	14.6258
1.27	14.5757
1.264	14.5171
1.258	14.497
1.252	14.3824
1.246	14.3913
1.24	14.3177
1.234	14.2867
1.228	14.2064
1.222	14.2335
1.216	14.1645
1.21	14.1475
1.204	14.1355
1.198	14.1107
1.192	14.0812
1.186	14.0977
1.18	14.0822
1.174	14.0698
1.168	14.0345
1.162	14.0655
1.156	14.0261
1.15	14.0142
1.144	14.0522
1.138	14.0355
1.132	14.0555
1.126	13.9907
1.12	13.9705
1.114	14.0307
1.108	14.0027
1.102	13.9762
1.096	13.9833
1.09	13.9788
1.084	13.9662
1.078	13.9911
1.072	13.912
1.066	13.8945
1.06	13.8722
1.054	13.831
1.048	13.7776
1.042	13.7708
1.036	13.6807
1.03	13.6708
1.024	13.6193
1.018	13.5906
1.012	13.5397
1.006	13.4825
1	13.4473
0.994	13.3659
0.988	13.3944
0.982	13.2447
0.976	13.251
0.97	13.2182
0.964	13.2062
0.958	13.1826
0.952	13.2023
0.946	13.1468
0.94	13.2065
0.934	13.175
0.928	13.1614
0.922	13.2378
0.916	13.2669
0.91	13.2491
0.904	13.2538
0.898	13.3483
0.892	13.3898
0.886	13.486
0.88	13.5319
0.874	13.5645
0.868	13.7296
0.862	13.7986
0.856	14.162
0.85	14.2956
0.844	14.3461
0.838	14.4456
0.832	14.517
0.826	14.599
0.82	14.6834
0.814	14.7709
0.808	14.8384
0.802	14.8963
0.796	14.9598
0.79	15.0096
0.784	15.0858
0.778	15.1367
0.772	15.197
0.766	15.2341
0.76	15.2991
0.754	15.3465
0.748	15.3973
0.742	15.426
0.736	15.4612
0.73	15.5101
0.724	15.5317
0.718	15.5707
0.712	15.587
0.706	15.6058
0.7	15.6294
0.694	15.6477
0.688	15.6595
0.682	15.6702
0.676	15.6788
0.67	15.687
0.664	15.6942
0.658	15.6994
0.652	15.7024
0.646	15.7058
0.64	15.7035
0.634	15.7078
0.628	15.7059
0.622	15.7092
0.616	15.7052
0.61	15.7053
0.604	15.7087
0.598	15.7144
0.592	15.7254
0.586	15.7259
0.58	15.7206
0.574	15.7198
0.568	15.7163
0.562	15.7112
0.556	15.6935
0.55	15.6757
0.544	15.6554
0.538	15.6273
0.532	15.6091
0.526	15.5792
0.52	15.5472
0.514	15.5093
0.508	15.4789
0.502	15.4361
0.496	15.3987
0.49	15.3371
0.484	15.2666
0.478	15.2064
0.472	15.148
0.466	15.0855
0.46	15.0017
0.454	14.8991
0.448	14.7844
0.442	14.6386
0.436	14.4352
0.43	14.1906
0.424	13.97
0.418	13.7578
0.412	13.5054
0.406	13.102
0.4	12.441
