Name: Quartz SiO_2
Type: Mineral
Class: Silicates
Subclass: Tectosilicates
Particle Size: 45-125um
Sample No.: TS-1A
Owner: JPL
Wavelength Range: VNIR-SWIR
Origin: USA, Arkansas, Montgomery County, Mount Ida
Description: Rock crystal.
Measurement: Hemispherical reflectance
X Units: Wavelength (micrometers)
Y Units: Reflectance (percent)
wavelength	value
0.4	82
0.403	82.16
0.406	82.12
0.409	82.26
0.412	82.13
0.415	82.42
0.418	82.39
0.421	82.26
0.424	82.5
0.427	82.46
0.43	82.41
0.433	82.44
0.436	82.45
0.439	82.47
0.442	82.59
0.445	82.59
0.448	82.43
0.451	82.43
0.454	82.69
0.457	82.64
0.46	82.67
0.463	82.85
0.466	82.95
0.469	82.72
0.472	82.71
0.475	83.07
0.478	83.02
0.481	82.89
0.484	82.96
0.487	82.98
0.49	83.05
0.493	83.07
0.496	83.18
0.499	83.05
0.502	83.24
0.505	83.08
0.508	83.12
0.511	83.25
0.514	83.31
0.517	83.38
0.52	83.24
0.523	83.3
0.526	83.16
0.529	83.36
0.532	83.32
0.535	83.24
0.538	83.33
0.541	83.32
0.544	83.34
0.547	83.44
0.55	83.57
0.553	83.57
0.556	83.62
0.559	83.68
0.562	83.96
0.565	83.89
0.568	83.66
0.571	83.56
0.574	83.54
0.577	83.48
0.58	83.39
0.583	83.27
0.586	83.37
0.589	83.38
0.592	83.45
0.595	83.47
0.598	83.44
0.601	83.77
0.604	83.66
0.607	83.52
0.61	83.58
0.613	83.47
0.616	83.38
0.619	83.31
0.622	83.42
0.625	83.42
0.628	83.34
0.631	83.41
0.634	83.58
0.637	83.4
0.64	83.45
0.643	83.53
0.646	83.36
0.649	83.35
0.652	83.5
0.655	83.49
0.658	83.41
0.661	83.53
0.664	83.45
0.667	83.54
0.67	83.65
0.673	83.42
0.676	83.51
0.679	83.53
0.682	83.55
0.685	83.56
0.688	83.59
0.691	83.48
0.694	83.66
0.697	83.67
0.7	83.53
0.703	83.37
0.706	83.5
0.709	83.49
0.712	83.49
0.715	83.54
0.718	83.55
0.721	83.49
0.724	83.55
0.727	83.51
0.73	83.42
0.733	83.61
0.736	83.56
0.739	83.54
0.742	83.62
0.745	83.45
0.748	83.51
0.751	83.52
0.754	83.51
0.757	83.4
0.76	83.57
0.763	83.6
0.766	83.58
0.769	83.69
0.772	83.48
0.775	83.68
0.778	83.6
0.781	83.48
0.784	83.66
0.787	83.66
0.79	83.65
0.793	83.7
0.796	83.74
0.799	83.66
0.808	83.49
0.82	83.49
0.832	83.49
0.844	83.71
0.856	83.75
0.868	83.79
0.88	83.77
0.892	83.77
0.904	83.78
0.916	83.89
0.928	83.97
0.94	83.89
0.952	83.93
0.964	84.07
0.976	84.01
0.988	83.97
1	84.02
1.012	84.1
1.024	84.11
1.036	84.07
1.048	84.07
1.06	84.06
1.072	84.03
1.084	84.15
1.096	84.17
1.108	84.11
1.12	84.19
1.132	84.26
1.144	84.23
1.156	84.26
1.168	84.18
1.18	84.09
1.192	84.15
1.204	84.1
1.216	84.23
1.228	84.13
1.24	84.12
1.252	84.11
1.264	84.06
1.276	84.28
1.288	84.31
1.3	84.14
1.312	84.06
1.324	84.09
1.336	84.19
1.348	84.19
1.36	84
1.372	84.06
1.384	84.11
1.396	84.21
1.408	84.21
1.42	84.16
1.432	84.11
1.444	84.19
1.456	84.2
1.468	84.19
1.48	84.28
1.492	84.32
1.504	84.2
1.516	84.25
1.528	84.24
1.54	84.33
1.552	84.39
1.564	84.53
1.576	84.42
1.588	84.34
1.6	84.4
1.612	84.36
1.624	84.46
1.636	84.51
1.648	84.58
1.66	84.66
1.672	84.71
1.684	84.71
1.696	84.69
1.708	84.71
1.72	84.64
1.732	84.58
1.744	84.54
1.756	84.61
1.768	84.5
1.78	84.65
1.792	84.7
1.804	84.76
1.816	84.54
1.828	84.64
1.84	84.67
1.852	84.7
1.864	84.6
1.876	84.49
1.888	84.39
1.9	84.38
1.912	84.37
1.924	84.4
1.936	84.41
1.948	84.39
1.96	84.42
1.972	84.57
1.984	84.61
1.996	84.81
2.008	84.97
2.02	85.05
2.032	85.1
2.044	85.22
2.056	85.25
2.068	85.35
2.08	85.38
2.092	85.39
2.104	85.73
2.116	85.75
2.128	85.7
2.14	85.56
2.152	85.47
2.164	85.41
2.176	85.29
2.188	85.1
2.2	85.02
2.212	84.89
2.224	85.01
2.236	84.91
2.248	85.08
2.26	85.11
2.272	85.22
2.284	85.27
2.296	85.32
2.308	85.45
2.32	85.52
2.332	85.66
2.344	85.65
2.356	85.69
2.368	85.45
2.38	85.54
2.392	85.49
2.404	85.6
2.416	85.52
2.428	85.46
2.44	85.43
2.452	85.42
2.464	85.39
2.476	85.26
2.488	85.68
2.5	85.88
