Name: Prehnite Ca_2Al_2Si_3O_10(OH)_2
Type: Mineral
Class: Silicates
Subclass: Phyllosilicates
Particle Size: 45-125um
Sample No.: PS-21A
Owner: JPL
Origin: USA, Virginia, Centerville
Measurement: Hemispherical reflectance
X Units: Wavelength (micrometers)
Y Units: Reflectance (percent)
wavelength	value
15.385	3.3147
15.116	3.4334
14.856	3.6553
14.605	4.1819
14.362	4.9172
14.128	5.3289
13.9	6.2496
13.68	7.8889
13.467	10.5441
13.26	11.0666
13.06	12.2985
12.866	5.674
12.677	3.1499
12.494	3.9952
12.316	5.5306
12.143	5.2614
11.974	3.5636
11.811	4.1562
11.651	5.0575
11.496	5.2589
11.345	4.5812
11.198	5.4825
11.055	6.9325
10.915	9.3107
10.779	13.1183
10.647	13.8823
10.517	10.4509
10.39	10.0087
10.267	12.6232
10.146	20.7478
10.029	24.4558
9.914	28.0095
9.801	29.4531
9.691	27.3566
9.584	14.7508
9.479	8.2033
9.376	12.1926
9.275	24.4958
9.177	25.3847
9.08	20.5852
8.986	17.442
8.893	11.6516
8.803	7.0692
8.714	3.2591
8.627	0.8819
8.542	0.3728
8.458	0.2651
8.376	0.1098
8.296	0.3147
8.217	0.3745
8.139	0.5057
8.063	0.8106
7.989	1.1043
7.916	1.3971
7.844	1.7038
7.773	2.1153
7.704	2.5878
7.636	3.026
7.569	3.6691
7.503	4.3277
7.439	4.8033
7.375	4.907
7.313	5.1331
7.252	5.3373
7.191	5.6104
7.132	5.7088
7.073	5.5197
7.016	5.3953
6.96	5.3333
6.904	4.9994
6.849	4.9178
6.795	5.1014
6.742	5.2539
6.69	5.335
6.639	5.4771
6.588	5.0879
6.538	4.9948
6.489	5.0956
6.441	4.7183
6.393	4.9229
6.346	5.8866
6.3	6.6332
6.254	7.3924
6.209	7.768
6.165	8.1778
6.121	8.6755
6.078	8.9956
6.036	9.0843
5.994	8.7877
5.953	8.5092
5.912	8.2842
5.872	7.9981
5.832	7.5789
5.793	7.6784
5.755	7.8552
5.716	8.1651
5.679	8.1859
5.642	8.454
5.605	8.6007
5.569	8.4884
5.533	7.8658
5.498	7.0184
5.463	6.1828
5.429	6.3984
5.395	7.0206
5.362	7.7257
5.329	8.8231
5.296	10.3051
5.264	11.9614
5.232	14.1777
5.2	15.4274
5.169	15.5976
5.139	15.0437
5.108	14.7114
5.078	16.2737
5.049	17.5616
5.019	18.8795
4.99	19.7808
4.962	20.7148
4.933	22.5935
4.905	24.9914
4.878	26.3901
4.85	27.3189
4.823	27.8965
4.796	28.12
4.77	27.449
4.744	29.3102
4.718	31.2409
4.692	32.6276
4.667	34.1305
4.642	34.8046
4.617	35.065
4.592	36.6448
4.568	38.1057
4.544	38.6824
4.52	39.5262
4.497	40.8502
4.474	42.2589
4.45	43.9141
4.428	45.0188
4.405	45.8203
4.383	46.4886
4.361	47.2244
4.339	47.7284
4.317	48.3363
4.296	49.2774
4.274	50.2125
4.253	50.5014
4.233	51.2851
4.212	51.0452
4.191	51.0008
4.171	50.9659
4.151	51.1693
4.131	51.6989
4.112	52.2222
4.092	52.645
4.073	52.6013
4.054	52.4908
4.035	52.4526
4.016	52.2626
3.998	52.2078
3.979	52.5072
3.961	52.4221
3.943	52.8633
3.925	52.9757
3.907	51.7231
3.89	50.3908
3.872	45.5609
3.855	47.6331
3.838	47.7212
3.821	48.5319
3.804	49.464
3.787	50.0634
3.771	50.2442
3.754	49.4726
3.738	47.7633
3.722	47.4597
3.706	47.8785
3.69	46.9638
3.675	45.5629
3.659	44.6039
3.644	44.6345
3.628	44.8423
3.613	44.2947
3.598	43.7606
3.583	44.3694
3.568	45.3271
3.554	46.0126
3.539	46.2327
3.525	46.1795
3.51	46.3823
3.496	46.8405
3.482	47.3769
3.468	47.3578
3.454	47.0689
3.441	46.2958
3.427	45.4689
3.413	44.3576
3.4	44.2035
3.387	43.7026
3.373	42.9026
3.36	42.1044
3.347	41.0056
3.334	39.5109
3.321	37.874
3.309	36.9779
3.296	36.3348
3.284	35.6687
3.271	35.3265
3.259	34.368
3.247	33.1662
3.234	32.0971
3.222	31.5073
3.21	30.2962
3.199	28.4789
3.187	26.407
3.175	25.5589
3.163	25.5466
3.152	25.4614
3.14	24.9849
3.129	24.323
3.118	23.329
3.107	22.089
3.095	21.9567
3.084	21.5497
3.073	21.7639
3.063	21.4271
3.052	20.1013
3.041	19.2267
3.03	17.738
3.02	16.189
3.009	14.3648
2.999	12.5992
2.988	11.1013
2.978	11.0043
2.968	10.6325
2.958	9.8849
2.948	9.2199
2.938	10.0866
2.928	9.2489
2.918	7.4316
2.908	5.9656
2.898	4.407
2.888	4.1282
2.879	3.9107
2.869	4.0997
2.86	4.6237
2.85	2.6947
2.841	4.6649
2.832	8.0314
2.822	10.754
2.813	11.9395
2.804	12.3079
2.795	11.7998
2.786	11.3081
2.777	12.0149
2.768	14.1644
2.759	16.2922
2.751	19.6485
2.742	23.4168
2.733	26.6517
2.725	30.8378
2.716	32.0604
2.707	34.5271
2.699	36.3934
2.691	37.3146
2.682	38.2972
2.674	39.0063
2.666	41.078
2.658	40.7207
2.649	43.0073
2.641	43.0071
2.633	40.2383
2.625	37.5311
2.617	35.7932
2.609	33.3743
2.602	33.0516
2.594	35.5221
2.586	34.025
2.578	32.1444
2.571	31.1937
2.563	32.7034
2.555	33.0342
2.548	34.8814
2.54	35.0015
2.533	33.5986
2.525	33.5317
2.518	37.1977
2.511	40.6897
2.504	41.3998
2.496	41.4678
2.489	41.7185
2.482	41.6169
2.475	40.8103
2.468	42.0406
2.461	44.8882
2.454	45.5344
2.447	46.9885
2.44	46.3592
2.433	42.7435
2.426	40.6003
2.419	37.2891
2.413	33.8666
2.406	32.3339
2.399	31.1568
2.393	27.9873
2.386	27.298
2.379	27.6734
2.373	27.9004
2.366	24.2141
2.36	21.8662
2.354	23.5614
2.347	28.4309
2.341	30.8386
2.334	27.1035
2.328	27.5412
2.322	37.5508
2.316	49.6757
2.309	55.3723
2.303	55.3092
2.297	51.797
2.291	50.4972
2.285	49.0247
2.279	49.1379
2.273	51.6322
2.267	55.2652
2.261	56.9258
2.255	57.5274
2.249	55.2899
2.244	51.3875
2.238	49.0227
2.232	48.3181
2.226	52.4163
2.22	56.479
2.215	59.1088
2.209	64.2837
2.204	68.623
2.198	70.7388
2.192	72.0124
2.187	72.7767
2.181	73.3202
2.176	73.9379
2.17	74.4635
2.165	74.9604
2.159	75.4452
2.154	75.5014
2.149	75.6999
2.143	76.3074
2.138	76.9269
2.133	76.9589
2.128	76.7703
2.122	77.1309
2.117	77.5628
2.112	77.6804
2.107	78.3183
2.102	78.2276
2.097	78.5194
2.091	78.9796
2.086	79.1866
2.081	79.3877
2.076	79.2874
2.071	79.5414
2.066	79.4932
2.062	79.3179
2.057	79.6744
2.052	79.6833
2.047	79.7474
2.042	79.5277
2.037	79.4918
2.032	79.3158
2.028	79.2475
2.023	79.1516
2.018	79.1171
2.014	79.0081
2.009	79.2625
2.004	79.2737
