Name: Trona Na_3(CO_3)(HCO_3).2H_2O
Type: Mineral
Class: Carbonates
Particle Size: 45-125um
Sample No.: C-4A
Owner: JPL
Wavelength Range: VNIR-SWIR
Origin: USA, Wyoming, Sweetwater County
Measurement: Hemispherical reflectance
X Units: Wavelength (micrometers)
Y Units: Reflectance (percent)
wavelength	value
0.4	55.94
0.403	56.16
0.406	56.85
0.409	57.2
0.412	57.59
0.415	58.46
0.418	58.69
0.421	59.31
0.424	59.43
0.427	60.29
0.43	60.57
0.433	61.14
0.436	61.66
0.439	61.88
0.442	62.86
0.445	62.86
0.448	63.66
0.451	63.77
0.454	64.46
0.457	64.58
0.46	64.88
0.463	65.28
0.466	65.91
0.469	66.14
0.472	66.09
0.475	66.61
0.478	66.73
0.481	67.31
0.484	67.25
0.487	67.83
0.49	67.89
0.493	68.35
0.496	68.41
0.499	68.59
0.502	68.99
0.505	69.22
0.508	69.62
0.511	69.51
0.514	70.14
0.517	69.97
0.52	70.48
0.523	70.48
0.526	70.88
0.529	70.88
0.532	70.94
0.535	71.28
0.538	71.05
0.541	71.68
0.544	71.22
0.547	71.63
0.55	71.68
0.553	71.8
0.556	72.31
0.559	72.03
0.562	72.42
0.565	72.88
0.568	72.71
0.571	73.06
0.574	72.94
0.577	72.88
0.58	73.29
0.583	73.11
0.586	73.69
0.589	73.46
0.592	74.08
0.595	73.97
0.598	74.03
0.601	74.43
0.604	74.26
0.607	74.78
0.61	74.66
0.613	74.72
0.616	74.89
0.619	74.55
0.622	75.12
0.625	75.01
0.628	75.24
0.631	75.4
0.634	75.24
0.637	75.74
0.64	75.51
0.643	75.74
0.646	75.74
0.649	75.98
0.652	76.03
0.655	76.21
0.658	76.26
0.661	76.03
0.664	76.55
0.667	76.38
0.67	76.72
0.673	76.44
0.676	76.9
0.679	76.72
0.682	77.12
0.685	77.01
0.688	77.17
0.691	77.06
0.694	77.41
0.697	77.35
0.7	77.35
0.703	77.46
0.706	77.75
0.709	77.69
0.712	78.04
0.715	77.69
0.718	78.21
0.721	77.98
0.724	78.21
0.727	78.33
0.73	78.1
0.733	78.5
0.736	78.33
0.739	78.72
0.742	78.44
0.745	78.56
0.748	78.67
0.751	78.56
0.754	78.78
0.757	78.56
0.76	79.01
0.763	78.78
0.766	79.01
0.769	79.07
0.772	78.67
0.775	79.24
0.778	78.89
0.781	79.3
0.784	79.12
0.787	79.24
0.79	79.41
0.793	79.18
0.796	79.64
0.799	79.53
0.808	79.93
0.82	79.81
0.832	80.04
0.844	80.1
0.856	80.16
0.868	80.04
0.88	80.04
0.892	80.1
0.904	80.1
0.916	80.28
0.928	80.38
0.94	80.22
0.952	80.1
0.964	80.04
0.976	79.76
0.988	79.41
1	79.24
1.012	79.12
1.024	79.3
1.036	79.53
1.048	79.7
1.06	79.81
1.072	79.76
1.084	79.81
1.096	79.81
1.108	79.7
1.12	79.53
1.132	79.35
1.144	78.89
1.156	78.03
1.168	76.64
1.18	75.47
1.192	74.6
1.204	74.07
1.216	73.67
1.228	73.38
1.24	73.61
1.252	73.61
1.264	73.88
1.276	74.03
1.288	73.9
1.3	73.37
1.312	72.67
1.324	72.01
1.336	71.37
1.348	70.84
1.36	70.73
1.372	70.21
1.384	69.7
1.396	69.01
1.408	67.37
1.42	64.47
1.432	60.54
1.444	56.62
1.456	52.96
1.468	49.94
1.48	47.43
1.492	45.54
1.504	44.16
1.516	43.6
1.528	43.6
1.54	45.03
1.552	46.91
1.564	48.05
1.576	48.4
1.588	48.05
1.6	47.37
1.612	46.67
1.624	45.57
1.636	44.48
1.648	43.15
1.66	41.83
1.672	40.4
1.684	39.13
1.696	38.09
1.708	36.89
1.72	35.75
1.732	34.55
1.744	34.04
1.756	33.99
1.768	33.81
1.78	33.58
1.792	33.53
1.804	33.4
1.816	33.08
1.828	32.82
1.84	32.46
1.852	31.52
1.864	30.32
1.876	28.66
1.888	26.55
1.9	23.54
1.912	19.57
1.924	15.82
1.936	13.32
1.948	12.98
1.96	13.76
1.972	14.94
1.984	15.55
1.996	15.59
2.008	15.11
2.02	14.42
2.032	13.88
2.044	13.58
2.056	13.78
2.068	14.26
2.08	14.8
2.092	15.39
2.104	16.1
2.116	16.58
2.128	16.83
2.14	17.04
2.152	17.17
2.164	17.34
2.176	17.24
2.188	17.07
2.2	16.93
2.212	16.83
2.224	16.67
2.236	16.94
2.248	17.05
2.26	17.03
2.272	16.74
2.284	16.44
2.296	16.02
2.308	15.38
2.32	14.8
2.332	14.38
2.344	13.79
2.356	13.27
2.368	12.53
2.38	11.86
2.392	11.41
2.404	11.24
2.416	11.13
2.428	11.08
2.44	11.07
2.452	10.79
2.464	10.89
2.476	10.73
2.488	10.56
2.5	10.39
