Name: Sphalerite (Zn,Fe)S
Type: Mineral
Class: Sulfides
Particle Size: 125-500um
Sample No.: S-1A
Owner: JPL
Wavelength Range: VNIR-SWIR
Origin: USA, Oklahoma, Ottawa County, Picher
Measurement: Hemispherical reflectance
X Units: Wavelength (micrometers)
Y Units: Reflectance (percent)
wavelength	value
0.4	10.03
0.403	9.92
0.406	9.98
0.409	10.01
0.412	9.98
0.415	10.04
0.418	9.97
0.421	9.98
0.424	9.96
0.427	10.02
0.43	9.97
0.433	9.99
0.436	9.99
0.439	10.02
0.442	10.08
0.445	10
0.448	10.2
0.451	10.25
0.454	10.22
0.457	10.2
0.46	10.33
0.463	10.41
0.466	10.37
0.469	10.52
0.472	10.54
0.475	10.6
0.478	10.97
0.481	10.94
0.484	11.07
0.487	11.04
0.49	11.12
0.493	11.24
0.496	11.38
0.499	11.42
0.502	11.46
0.505	11.6
0.508	11.83
0.511	12.1
0.514	12.14
0.517	12.39
0.52	12.45
0.523	12.7
0.526	12.88
0.529	13.07
0.532	13.21
0.535	13.31
0.538	13.52
0.541	13.62
0.544	13.94
0.547	14.04
0.55	14.33
0.553	14.35
0.556	14.59
0.559	14.76
0.562	15.03
0.565	15.12
0.568	15.31
0.571	15.43
0.574	15.35
0.577	15.51
0.58	15.69
0.583	15.83
0.586	15.89
0.589	15.95
0.592	16.01
0.595	16.17
0.598	16.31
0.601	16.37
0.604	16.54
0.607	16.54
0.61	16.65
0.613	16.65
0.616	16.7
0.619	16.63
0.622	16.75
0.625	16.75
0.628	16.63
0.631	16.74
0.634	16.75
0.637	16.89
0.64	16.82
0.643	16.97
0.646	17.13
0.649	17.23
0.652	17.39
0.655	17.39
0.658	17.52
0.661	17.69
0.664	17.83
0.667	18.12
0.67	18.18
0.673	18.41
0.676	18.53
0.679	18.67
0.682	18.84
0.685	18.92
0.688	19.19
0.691	19.32
0.694	19.47
0.697	19.84
0.7	20.05
0.703	20.19
0.706	20.51
0.709	20.71
0.712	21.05
0.715	21.37
0.718	21.56
0.721	21.91
0.724	22.16
0.727	22.42
0.73	22.51
0.733	22.86
0.736	22.97
0.739	23.28
0.742	23.35
0.745	23.45
0.748	23.68
0.751	23.91
0.754	24.05
0.757	24.07
0.76	24.16
0.763	24.45
0.766	24.51
0.769	24.55
0.772	24.66
0.775	24.76
0.778	24.99
0.781	24.94
0.784	25.15
0.787	25.31
0.79	25.32
0.793	25.27
0.796	25.42
0.799	25.61
0.808	26.2
0.82	26.69
0.832	27.14
0.844	27.49
0.856	27.94
0.868	28.45
0.88	28.91
0.892	29.28
0.904	29.73
0.916	30.18
0.928	30.49
0.94	30.7
0.952	30.88
0.964	31.16
0.976	31.18
0.988	31.26
1	31.42
1.012	31.44
1.024	31.54
1.036	31.58
1.048	31.6
1.06	31.64
1.072	31.7
1.084	31.72
1.096	31.79
1.108	31.73
1.12	31.79
1.132	31.8
1.144	31.86
1.156	31.81
1.168	31.77
1.18	31.76
1.192	31.75
1.204	31.77
1.216	31.81
1.228	31.83
1.24	31.76
1.252	31.78
1.264	31.85
1.276	31.82
1.288	31.81
1.3	31.78
1.312	31.68
1.324	31.65
1.336	31.64
1.348	31.59
1.36	31.66
1.372	31.65
1.384	31.62
1.396	31.55
1.408	31.54
1.42	31.53
1.432	31.52
1.444	31.45
1.456	31.49
1.468	31.5
1.48	31.51
1.492	31.44
1.504	31.3
1.516	31.28
1.528	31.28
1.54	31.28
1.552	31.3
1.564	31.28
1.576	31.28
1.588	31.32
1.6	31.28
1.612	31.29
1.624	31.22
1.636	31.3
1.648	31.33
1.66	31.34
1.672	31.43
1.684	31.47
1.696	31.49
1.708	31.52
1.72	31.68
1.732	31.74
1.744	31.81
1.756	31.83
1.768	31.85
1.78	31.91
1.792	31.81
1.804	31.78
1.816	31.61
1.828	31.41
1.84	31.19
1.852	30.86
1.864	30.46
1.876	29.99
1.888	29.49
1.9	28.88
1.912	28.19
1.924	27.39
1.936	26.57
1.948	25.71
1.96	24.85
1.972	23.85
1.984	22.91
1.996	22.07
2.008	21.13
2.02	20.09
2.032	19.13
2.044	18.23
2.056	17.33
2.068	16.39
2.08	15.61
2.092	14.84
2.104	14.19
2.116	13.52
2.128	12.93
2.14	12.19
2.152	11.7
2.164	11.09
2.176	10.67
2.188	10.26
2.2	9.87
2.212	9.57
2.224	9.21
2.236	8.99
2.248	8.76
2.26	8.5
2.272	8.35
2.284	8.16
2.296	7.97
2.308	7.75
2.32	7.61
2.332	7.49
2.344	7.34
2.356	7.26
2.368	7.24
2.38	7.16
2.392	7.03
2.404	7.09
2.416	7.08
2.428	6.96
2.44	6.95
2.452	6.9
2.464	6.9
2.476	6.9
2.488	6.93
2.5	6.93
