Name: Mimetite Pb_5(AsO_4)_3Cl
Type: Mineral
Class: Arsenates
Particle Size: 45-125um
Sample No.: A-1A
Owner: JPL
Origin: Mexico, Chihuahua, Ingla Tierra Mine.
Measurement: Hemispherical reflectance
X Units: Wavelength (micrometers)
Y Units: Reflectance (percent)
wavelength	value
2.5	76.1501
2.494	76.1333
2.488	76.0584
2.482	76.0996
2.476	76.4691
2.47	76.4432
2.464	76.8166
2.458	76.6565
2.452	76.7454
2.446	76.8268
2.44	76.9673
2.434	77.0139
2.428	76.9314
2.422	77.1861
2.416	77.2934
2.41	77.4246
2.404	77.4207
2.398	77.5863
2.392	77.7173
2.386	77.9908
2.38	78.0817
2.374	78.1965
2.368	78.3162
2.362	78.2862
2.356	78.3135
2.35	78.3243
2.344	78.2159
2.338	78.1576
2.332	78.0614
2.326	78.0811
2.32	78.0928
2.314	78.275
2.308	78.4015
2.302	78.5942
2.296	78.5679
2.29	78.6184
2.284	78.5357
2.278	78.4088
2.272	78.3035
2.266	78.2625
2.26	78.3946
2.254	78.4727
2.248	78.782
2.242	78.8377
2.236	79.0453
2.23	79.1569
2.224	79.2465
2.218	79.3878
2.212	79.5392
2.206	79.5861
2.2	79.7761
2.194	79.8809
2.188	79.9153
2.182	80.0511
2.176	80.1804
2.17	80.2583
2.164	80.4232
2.158	80.7127
2.152	80.7832
2.146	80.8565
2.14	80.7593
2.134	80.7115
2.128	80.6574
2.122	80.3266
2.116	80.1384
2.11	79.8366
2.104	79.6189
2.098	79.4948
2.092	79.6053
2.086	79.6982
2.08	79.7831
2.074	79.7414
2.068	79.8598
2.062	79.9174
2.056	80.0474
2.05	80.1233
2.044	80.2589
2.038	80.2065
2.032	80.1407
2.026	80.2788
2.02	80.2631
2.014	80.2722
2.008	80.2914
2.002	80.2948
1.996	80.3274
1.99	80.2937
1.984	80.2161
1.978	80.108
1.972	80.1482
1.966	80.1662
1.96	80.1687
1.954	80.2631
1.948	80.2725
1.942	80.3713
1.936	80.4422
1.93	80.71
1.924	80.7897
1.918	81.0409
1.912	81.2314
1.906	81.4024
1.9	81.6174
1.894	81.9807
1.888	82.2262
1.882	82.4295
1.876	82.5517
1.87	82.8005
1.864	82.9658
1.858	83.0757
1.852	83.1701
1.846	83.2841
1.84	83.382
1.834	83.5595
1.828	83.5817
1.822	83.7072
1.816	83.7694
1.81	83.9513
1.804	84.0002
1.798	84.1016
1.792	84.0984
1.786	84.2576
1.78	84.344
1.774	84.391
1.768	84.4863
1.762	84.5309
1.756	84.6651
1.75	84.7986
1.744	85.3552
1.738	85.0102
1.732	85.1202
1.726	85.246
1.72	85.2603
1.714	85.4352
1.708	85.4669
1.702	85.4774
1.696	85.6382
1.69	85.6207
1.684	85.7327
1.678	85.7894
1.672	85.8264
1.666	85.9941
1.66	85.9419
1.654	86.0763
1.648	86.2231
1.642	86.2514
1.636	86.2873
1.63	86.354
1.624	86.4467
1.618	86.511
1.612	86.599
1.606	86.6622
1.6	86.7823
1.594	86.8004
1.588	86.8474
1.582	86.8954
1.576	86.9296
1.57	87.0131
1.564	87.0087
1.558	87.1029
1.552	87.1099
1.546	87.108
1.54	87.1003
1.534	87.1402
1.528	87.1665
1.522	87.2673
1.516	87.2904
1.51	87.3407
1.504	87.3139
1.498	87.3289
1.492	87.3514
1.486	87.3023
1.48	87.3851
1.474	87.3829
1.468	87.3919
1.462	87.4118
1.456	87.4575
1.45	87.4888
1.444	87.4748
1.438	87.6218
1.432	87.5953
1.426	87.7414
1.42	87.7926
1.414	87.8206
1.408	87.8742
1.402	88.0317
1.396	88.2535
1.39	88.2889
1.384	88.2943
1.378	88.4541
1.372	88.4151
1.366	88.4452
1.36	88.4984
1.354	88.4759
1.348	88.4469
1.342	88.5063
1.336	88.579
1.33	88.5075
1.324	88.6501
1.318	88.561
1.312	88.6346
1.306	88.6392
1.3	88.5876
1.294	88.6447
1.288	88.6783
1.282	88.6267
1.276	88.6634
1.27	88.7547
1.264	88.731
1.258	88.7536
1.252	88.7507
1.246	88.6598
1.24	88.638
1.234	88.6674
1.228	88.7122
1.222	88.6695
1.216	88.6966
1.21	88.5872
1.204	88.6532
1.198	88.6458
1.192	88.5734
1.186	88.6493
1.18	88.6291
1.174	88.6239
1.168	88.5815
1.162	88.5615
1.156	88.6364
1.15	88.5023
1.144	88.4334
1.138	88.4468
1.132	88.4768
1.126	88.4102
1.12	88.3527
1.114	88.2626
1.108	88.3194
1.102	88.2495
1.096	88.212
1.09	88.0663
1.084	88.1197
1.078	88.1451
1.072	87.9802
1.066	87.8832
1.06	87.8361
1.054	87.8129
1.048	87.7392
1.042	87.6751
1.036	87.5654
1.03	87.5203
1.024	87.4383
1.018	87.3936
1.012	87.295
1.006	87.2171
1	87.2253
0.994	87.1421
0.988	87.1004
0.982	87.0946
0.976	86.9784
0.97	86.8907
0.964	86.8829
0.958	86.9148
0.952	86.8251
0.946	86.8038
0.94	86.6912
0.934	86.6418
0.928	86.6596
0.922	86.617
0.916	86.5459
0.91	86.4754
0.904	86.3851
0.898	86.4087
0.892	86.3177
0.886	86.2294
0.88	86.1792
0.874	86.1233
0.868	86.0644
0.862	85.9331
0.856	85.8226
0.85	85.7209
0.844	85.4367
0.838	85.5937
0.832	85.539
0.826	85.4663
0.82	85.3744
0.814	85.2134
0.808	85.1622
0.802	85.1791
0.796	85.1338
0.79	85.1325
0.784	85.1724
0.778	85.0722
0.772	85.0052
0.766	84.948
0.76	84.8648
0.754	84.7456
0.748	84.6483
0.742	84.5551
0.736	84.4772
0.73	84.375
0.724	84.2949
0.718	84.1629
0.712	83.9991
0.706	83.8463
0.7	83.7576
0.694	83.6362
0.688	83.4828
0.682	83.3115
0.676	83.1213
0.67	82.9178
0.664	82.725
0.658	82.5523
0.652	82.383
0.646	82.2466
0.64	82.0636
0.634	81.8903
0.628	81.7061
0.622	81.3763
0.616	81.0741
0.61	80.6841
0.604	80.2261
0.598	79.7041
0.592	79.0918
0.586	78.3534
0.58	77.5233
0.574	76.585
0.568	75.5427
0.562	74.4357
0.556	73.1718
0.55	71.9249
0.544	70.4441
0.538	68.85
0.532	67.1045
0.526	65.1777
0.52	63.0392
0.514	60.708
0.508	58.1746
0.502	55.5272
0.496	52.7386
0.49	49.9392
0.484	47.138
0.478	44.5269
0.472	42.0338
0.466	39.6291
0.46	37.3598
0.454	35.302
0.448	33.4208
0.442	31.6484
0.436	30.0899
0.43	28.6782
0.424	27.4516
0.418	26.3941
0.412	25.4866
0.406	24.7379
0.4	24.1024
