Name: Actinolite Ca_2(Mg,Fe^2+)_5Si_8O_22(OH)_2
Type: Mineral
Class: Silicates
Subclass: Inosilicates
Particle Size: 125-500um
Sample No.: IN-4A
Owner: JPL
Wavelength Range: VNIR-SWIR
Origin: USA, California, San Bernadino County, Wrightwood
Measurement: Hemispherical reflectance
X Units: Wavelength (micrometers)
Y Units: Reflectance (percent)
wavelength	value
0.4	10.42
0.403	10.52
0.406	10.82
0.409	11.12
0.412	11.24
0.415	11.35
0.418	11.6
0.421	11.87
0.424	12.14
0.427	12.35
0.43	12.66
0.433	12.81
0.436	12.74
0.439	12.64
0.442	12.78
0.445	13.04
0.448	13.07
0.451	13.36
0.454	13.51
0.457	13.76
0.46	13.85
0.463	14.13
0.466	14.47
0.469	14.7
0.472	15.19
0.475	15.51
0.478	15.81
0.481	15.94
0.484	16.17
0.487	16.46
0.49	16.64
0.493	16.89
0.496	17.16
0.499	17.58
0.502	17.7
0.505	17.69
0.508	17.99
0.511	18.33
0.514	18.66
0.517	18.94
0.52	18.91
0.523	18.81
0.526	19.06
0.529	19.4
0.532	19.33
0.535	19.09
0.538	19.04
0.541	18.99
0.544	18.91
0.547	18.87
0.55	18.98
0.553	18.93
0.556	18.9
0.559	18.71
0.562	18.69
0.565	18.43
0.568	18.3
0.571	18.07
0.574	17.72
0.577	17.57
0.58	17.37
0.583	17.22
0.586	16.85
0.589	16.74
0.592	16.54
0.595	16.35
0.598	16.23
0.601	15.95
0.604	15.7
0.607	15.57
0.61	15.44
0.613	15.26
0.616	14.94
0.619	14.84
0.622	14.66
0.625	14.54
0.628	14.42
0.631	14.23
0.634	14.1
0.637	14.06
0.64	14.04
0.643	13.87
0.646	13.93
0.649	13.72
0.652	13.73
0.655	13.74
0.658	13.68
0.661	13.66
0.664	13.77
0.667	13.79
0.67	13.71
0.673	13.82
0.676	13.83
0.679	14.02
0.682	14.13
0.685	14.02
0.688	13.9
0.691	14
0.694	14.05
0.697	14.07
0.7	14.07
0.703	14.26
0.706	14.4
0.709	14.43
0.712	14.7
0.715	14.71
0.718	14.64
0.721	14.89
0.724	15.05
0.727	15.05
0.73	15.18
0.733	15.3
0.736	15.34
0.739	15.53
0.742	15.54
0.745	15.4
0.748	15.61
0.751	15.76
0.754	15.78
0.757	15.97
0.76	15.97
0.763	15.93
0.766	16.18
0.769	16.11
0.772	16.1
0.775	16.16
0.778	16.29
0.781	16.26
0.784	16.31
0.787	16.32
0.79	16.4
0.793	16.52
0.796	16.4
0.799	16.37
0.808	16.85
0.82	16.39
0.832	16.01
0.844	15.46
0.856	15.01
0.868	14.53
0.88	13.97
0.892	13.56
0.904	13.06
0.916	12.7
0.928	12.17
0.94	11.6
0.952	11
0.964	10.52
0.976	9.99
0.988	9.43
1	9.11
1.012	8.77
1.024	8.75
1.036	8.81
1.048	9.21
1.06	9.76
1.072	10.78
1.084	11.98
1.096	13.29
1.108	14.46
1.12	15.66
1.132	16.87
1.144	17.82
1.156	18.82
1.168	19.7
1.18	20.76
1.192	21.84
1.204	22.99
1.216	24.24
1.228	25.42
1.24	26.75
1.252	28.17
1.264	29.53
1.276	30.87
1.288	32.44
1.3	33.78
1.312	35.34
1.324	36.76
1.336	38.24
1.348	39.63
1.36	40.68
1.372	41.09
1.384	36.93
1.396	27.7
1.408	40.02
1.42	45.42
1.432	47.41
1.444	48.32
1.456	49.29
1.468	50.07
1.48	50.82
1.492	51.59
1.504	52.31
1.516	53.05
1.528	53.43
1.54	53.97
1.552	54.64
1.564	55.24
1.576	55.73
1.588	56.11
1.6	56.54
1.612	56.97
1.624	57.37
1.636	57.78
1.648	58.08
1.66	58.36
1.672	58.62
1.684	58.9
1.696	59.08
1.708	59.19
1.72	59.34
1.732	59.3
1.744	59.18
1.756	59.32
1.768	59.23
1.78	59.11
1.792	59.01
1.804	58.87
1.816	58.37
1.828	57.94
1.84	57.58
1.852	56.76
1.864	56.35
1.876	55.86
1.888	55.32
1.9	54.83
1.912	54.36
1.924	53.98
1.936	53.48
1.948	52.73
1.96	51.97
1.972	51.1
1.984	50.17
1.996	49.33
2.008	48.63
2.02	48.27
2.032	47.69
2.044	46.85
2.056	45.84
2.068	44.95
2.08	43.91
2.092	42.76
2.104	41.12
2.116	39.76
2.128	39.16
2.14	39.3
2.152	39.2
2.164	39
2.176	38.57
2.188	38.09
2.2	37.58
2.212	36.85
2.224	35.45
2.236	33.61
2.248	31.44
2.26	29.08
2.272	25.59
2.284	21.33
2.296	17.48
2.308	16.29
2.32	18.28
2.332	22.12
2.344	25.25
2.356	25.21
2.368	22.64
2.38	20.17
2.392	20.01
2.404	21.75
2.416	23.56
2.428	24.52
2.44	24.61
2.452	24.47
2.464	24.24
2.476	24.18
2.488	24.43
2.5	24.92
