Name: Pyrolusite MnO_2
Type: Mineral
Class: Oxides
Particle Size: 125-500um
Sample No.: O-6A
Owner: JPL
Origin: Mexico, Chihuahua.
Measurement: Hemispherical reflectance
X Units: Wavelength (micrometers)
Y Units: Reflectance (percent)
wavelength	value
2.5	12.2988
2.494	12.0279
2.488	12.2539
2.482	12.2121
2.476	12.1857
2.47	12.2186
2.464	12.2015
2.458	12.0843
2.452	12.2755
2.446	12.2157
2.44	12.257
2.434	12.3396
2.428	12.3132
2.422	12.317
2.416	12.4706
2.41	12.3774
2.404	12.3838
2.398	12.3347
2.392	12.4555
2.386	12.4614
2.38	12.4567
2.374	12.441
2.368	12.4687
2.362	12.452
2.356	12.5081
2.35	12.5391
2.344	12.5947
2.338	12.4869
2.332	12.4835
2.326	12.4536
2.32	12.5196
2.314	12.5266
2.308	12.4962
2.302	12.4736
2.296	12.4678
2.29	12.4673
2.284	12.4934
2.278	12.4878
2.272	12.4521
2.266	12.4669
2.26	12.3724
2.254	12.3884
2.248	12.3857
2.242	12.4099
2.236	12.4543
2.23	12.4334
2.224	12.4245
2.218	12.427
2.212	12.5452
2.206	12.4856
2.2	12.5123
2.194	12.5198
2.188	12.5161
2.182	12.566
2.176	12.551
2.17	12.5632
2.164	12.5716
2.158	12.6086
2.152	12.6347
2.146	12.6012
2.14	12.581
2.134	12.6462
2.128	12.6344
2.122	12.5057
2.116	12.5435
2.11	12.4608
2.104	12.412
2.098	12.3432
2.092	12.3995
2.086	12.4543
2.08	12.4005
2.074	12.4377
2.068	12.4086
2.062	12.4035
2.056	12.448
2.05	12.4257
2.044	12.4765
2.038	12.4419
2.032	12.489
2.026	12.4904
2.02	12.4391
2.014	12.4691
2.008	12.4023
2.002	12.4407
1.996	12.4462
1.99	12.3879
1.984	12.3434
1.978	12.4502
1.972	12.3528
1.966	12.4185
1.96	12.3251
1.954	12.4181
1.948	12.4239
1.942	12.4026
1.936	12.5116
1.93	12.4394
1.924	12.4628
1.918	12.503
1.912	12.4772
1.906	12.4741
1.9	12.471
1.894	12.4974
1.888	12.3949
1.882	12.4442
1.876	12.4034
1.87	12.4499
1.864	12.4431
1.858	12.407
1.852	12.4872
1.846	12.4345
1.84	12.4716
1.834	12.5324
1.828	12.4603
1.822	12.4957
1.816	12.4801
1.81	12.4174
1.804	12.4483
1.798	12.481
1.792	12.4833
1.786	12.4793
1.78	12.4374
1.774	12.4649
1.768	12.5013
1.762	12.4308
1.756	12.4762
1.75	12.51
1.744	12.5234
1.738	12.482
1.732	12.4835
1.726	12.4733
1.72	12.5125
1.714	12.4913
1.708	12.4865
1.702	12.4938
1.696	12.4786
1.69	12.513
1.684	12.456
1.678	12.4367
1.672	12.4267
1.666	12.4289
1.66	12.4411
1.654	12.4364
1.648	12.3862
1.642	12.5655
1.636	12.362
1.63	12.4066
1.624	12.4747
1.618	12.4413
1.612	12.4455
1.606	12.4373
1.6	12.4047
1.594	12.3942
1.588	12.4007
1.582	12.3691
1.576	12.3729
1.57	12.3416
1.564	12.3346
1.558	12.3413
1.552	12.3131
1.546	12.3084
1.54	12.3578
1.534	12.3178
1.528	12.3439
1.522	12.38
1.516	12.2908
1.51	12.3133
1.504	12.257
1.498	12.2751
1.492	12.248
1.486	12.2194
1.48	12.2518
1.474	12.2792
1.468	12.2448
1.462	12.2322
1.456	12.1767
1.45	12.1343
1.444	12.1153
1.438	12.1237
1.432	12.1168
1.426	12.1113
1.42	12.0702
1.414	12.0115
1.408	11.9865
1.402	11.9056
1.396	11.8979
1.39	11.8975
1.384	11.811
1.378	11.7579
1.372	11.6359
1.366	11.6233
1.36	11.512
1.354	11.5961
1.348	11.4152
1.342	11.365
1.336	11.2472
1.33	11.1878
1.324	11.1499
1.318	10.9731
1.312	10.958
1.306	10.8527
1.3	10.7501
1.294	10.6795
1.288	10.593
1.282	10.5173
1.276	10.4873
1.27	10.3662
1.264	10.3378
1.258	10.1998
1.252	10.1928
1.246	10.1634
1.24	10.0949
1.234	10.0071
1.228	9.94789
1.222	9.88038
1.216	9.8549
1.21	9.80405
1.204	9.76122
1.198	9.68956
1.192	9.70575
1.186	9.61252
1.18	9.60458
1.174	9.57873
1.168	9.57706
1.162	9.45667
1.156	9.45439
1.15	9.44939
1.144	9.42007
1.138	9.37019
1.132	9.30724
1.126	9.32751
1.12	9.35774
1.114	9.29017
1.108	9.16513
1.102	9.3112
1.096	9.21329
1.09	9.29811
1.084	9.23048
1.078	9.27111
1.072	9.1877
1.066	9.24126
1.06	9.28845
1.054	9.17514
1.048	9.15321
1.042	9.19074
1.036	9.21565
1.03	9.10003
1.024	9.06121
1.018	9.05391
1.012	9.11521
1.006	9.15034
1	9.0778
0.994	9.06354
0.988	9.10768
0.982	9.09986
0.976	9.0495
0.97	9.03754
0.964	9.05396
0.958	9.12981
0.952	9.12672
0.946	9.11039
0.94	9.10575
0.934	9.09275
0.928	9.12281
0.922	9.11684
0.916	9.10374
0.91	9.11442
0.904	9.10587
0.898	9.1823
0.892	9.19628
0.886	9.17466
0.88	9.2173
0.874	9.18543
0.868	9.23112
0.862	9.21225
0.856	9.53792
0.85	9.55357
0.844	9.57016
0.838	9.58493
0.832	9.57478
0.826	9.59481
0.82	9.60778
0.814	9.60588
0.808	9.62313
0.802	9.6291
0.796	9.63176
0.79	9.6353
0.784	9.64448
0.778	9.64463
0.772	9.64489
0.766	9.63365
0.76	9.63819
0.754	9.64273
0.748	9.65494
0.742	9.66368
0.736	9.67857
0.73	9.69118
0.724	9.7077
0.718	9.72177
0.712	9.73733
0.706	9.75783
0.7	9.77854
0.694	9.7975
0.688	9.82316
0.682	9.84555
0.676	9.87103
0.67	9.89787
0.664	9.92665
0.658	9.95609
0.652	9.985
0.646	10.0119
0.64	10.0455
0.634	10.0784
0.628	10.1108
0.622	10.1452
0.616	10.1792
0.61	10.2107
0.604	10.2467
0.598	10.2851
0.592	10.3241
0.586	10.3615
0.58	10.3982
0.574	10.4317
0.568	10.4664
0.562	10.5002
0.556	10.5379
0.55	10.5728
0.544	10.6094
0.538	10.6457
0.532	10.682
0.526	10.7205
0.52	10.761
0.514	10.804
0.508	10.8548
0.502	10.9048
0.496	10.9516
0.49	10.9816
0.484	10.9903
0.478	10.9862
0.472	11.0089
0.466	11.0361
0.46	11.0652
0.454	11.0908
0.448	11.1116
0.442	11.1132
0.436	11.1084
0.43	11.1046
0.424	11.1016
0.418	11.0955
0.412	11.0842
0.406	11.0745
0.4	11.0623
