Name: Rhodochrosite MnCO_3
Type: Mineral
Class: Carbonates
Particle Size: 0-45um
Sample No.: C-8A
Owner: JPL
Origin: USA, Montana, Silver Bow County, Butte.
Measurement: Hemispherical reflectance
X Units: Wavelength (micrometers)
Y Units: Reflectance (percent)
wavelength	value
2.5	64.0861
2.494	64.2648
2.488	64.8423
2.482	65.4928
2.476	66.1438
2.47	66.6143
2.464	67.223
2.458	67.7517
2.452	68.0896
2.446	68.3336
2.44	68.7052
2.434	68.8439
2.428	68.9617
2.422	69.2474
2.416	69.2355
2.41	69.4867
2.404	69.4523
2.398	69.5071
2.392	69.2926
2.386	68.8966
2.38	68.2893
2.374	67.4469
2.368	66.8943
2.362	66.4799
2.356	66.5276
2.35	66.6877
2.344	66.9061
2.338	67.2098
2.332	67.369
2.326	67.5207
2.32	67.705
2.314	67.8651
2.308	68.1226
2.302	68.3905
2.296	68.6529
2.29	68.9318
2.284	69.2174
2.278	69.4213
2.272	69.5859
2.266	69.6967
2.26	69.87
2.254	69.9868
2.248	70.0725
2.242	70.2222
2.236	70.3015
2.23	70.4203
2.224	70.4768
2.218	70.5275
2.212	70.751
2.206	70.8524
2.2	71.0233
2.194	71.0328
2.188	71.1269
2.182	71.1472
2.176	71.3018
2.17	71.4186
2.164	71.4695
2.158	71.6479
2.152	71.7721
2.146	71.8839
2.14	71.9166
2.134	71.8627
2.128	71.7713
2.122	71.6403
2.116	71.3875
2.11	71.1645
2.104	70.9493
2.098	70.9014
2.092	70.9367
2.086	71.0481
2.08	71.1003
2.074	71.1252
2.068	71.1648
2.062	71.3067
2.056	71.3735
2.05	71.4142
2.044	71.5153
2.038	71.4461
2.032	71.4374
2.026	71.3945
2.02	71.3356
2.014	71.3092
2.008	71.2939
2.002	71.2948
1.996	71.2938
1.99	71.2765
1.984	71.2983
1.978	71.1569
1.972	71.1901
1.966	71.1827
1.96	71.1726
1.954	71.1334
1.948	71.1741
1.942	71.2384
1.936	71.208
1.93	71.2159
1.924	71.3503
1.918	71.3811
1.912	71.4575
1.906	71.5059
1.9	71.5276
1.894	71.4887
1.888	71.6149
1.882	71.72
1.876	71.8529
1.87	71.8551
1.864	71.9916
1.858	72.0103
1.852	72.0868
1.846	72.108
1.84	72.0939
1.834	72.1087
1.828	72.1402
1.822	72.1958
1.816	72.209
1.81	72.1607
1.804	72.2375
1.798	72.2409
1.792	72.2712
1.786	72.2229
1.78	72.1403
1.774	72.1935
1.768	72.2019
1.762	72.1954
1.756	72.1208
1.75	72.2401
1.744	72.2337
1.738	72.3343
1.732	72.2004
1.726	72.3251
1.72	72.3594
1.714	72.3323
1.708	72.3314
1.702	72.284
1.696	72.3196
1.69	72.2232
1.684	72.2501
1.678	72.263
1.672	72.1988
1.666	72.2969
1.66	72.2462
1.654	72.2533
1.648	72.2731
1.642	72.3684
1.636	72.2562
1.63	72.353
1.624	72.2921
1.618	72.3201
1.612	72.2551
1.606	72.2765
1.6	72.2803
1.594	72.2855
1.588	72.2515
1.582	72.2074
1.576	72.1922
1.57	72.2173
1.564	72.2919
1.558	72.2488
1.552	72.2259
1.546	72.1982
1.54	72.1995
1.534	72.1612
1.528	72.1623
1.522	72.1518
1.516	72.1575
1.51	72.1615
1.504	72.1409
1.498	72.1492
1.492	72.0751
1.486	72.0354
1.48	72.0483
1.474	72.0307
1.468	72.0145
1.462	72.0231
1.456	71.9947
1.45	71.9783
1.444	71.9923
1.438	71.9331
1.432	71.9094
1.426	71.9022
1.42	71.8788
1.414	71.916
1.408	71.8787
1.402	71.8778
1.396	71.9848
1.39	71.9338
1.384	71.9206
1.378	71.9095
1.372	71.8919
1.366	71.9339
1.36	71.8612
1.354	71.79
1.348	71.7899
1.342	71.7825
1.336	71.7251
1.33	71.6951
1.324	71.6635
1.318	71.649
1.312	71.6973
1.306	71.6512
1.3	71.6177
1.294	71.573
1.288	71.6113
1.282	71.4881
1.276	71.5186
1.27	71.5266
1.264	71.5001
1.258	71.4798
1.252	71.438
1.246	71.391
1.24	71.3655
1.234	71.3271
1.228	71.3086
1.222	71.2515
1.216	71.2476
1.21	71.244
1.204	71.217
1.198	71.1609
1.192	71.1445
1.186	71.1044
1.18	71.0726
1.174	71.0371
1.168	71.0576
1.162	71.0119
1.156	70.9783
1.15	70.9336
1.144	70.9172
1.138	70.9231
1.132	70.836
1.126	70.8825
1.12	70.8194
1.114	70.7686
1.108	70.707
1.102	70.6393
1.096	70.6243
1.09	70.619
1.084	70.5837
1.078	70.6102
1.072	70.4574
1.066	70.4899
1.06	70.5096
1.054	70.3392
1.048	70.3079
1.042	70.2685
1.036	70.245
1.03	70.1846
1.024	70.1972
1.018	70.1161
1.012	70.0588
1.006	70.1202
1	70.0544
0.994	70.0197
0.988	69.9783
0.982	69.9116
0.976	69.8435
0.97	69.8671
0.964	69.8047
0.958	69.7472
0.952	69.6646
0.946	69.5838
0.94	69.551
0.934	69.5522
0.928	69.4746
0.922	69.3938
0.916	69.3382
0.91	69.2495
0.904	69.1021
0.898	69.0943
0.892	69.0349
0.886	68.8893
0.88	68.8575
0.874	68.6718
0.868	68.706
0.862	68.5561
0.856	68.6763
0.85	68.684
0.844	68.5616
0.838	68.4747
0.832	68.3635
0.826	68.2781
0.82	68.1758
0.814	68.0738
0.808	67.9421
0.802	67.8675
0.796	67.6547
0.79	67.5377
0.784	67.4481
0.778	67.2641
0.772	67.1434
0.766	67.0184
0.76	66.8455
0.754	66.7218
0.748	66.5907
0.742	66.4459
0.736	66.3053
0.73	66.1628
0.724	66.0351
0.718	65.9015
0.712	65.7644
0.706	65.5849
0.7	65.4392
0.694	65.2994
0.688	65.1148
0.682	64.9283
0.676	64.7356
0.67	64.5298
0.664	64.3219
0.658	64.0719
0.652	63.8115
0.646	63.537
0.64	63.2638
0.634	63.0006
0.628	62.7053
0.622	62.4221
0.616	62.0951
0.61	61.7777
0.604	61.4094
0.598	61.0496
0.592	60.6616
0.586	60.1912
0.58	59.6663
0.574	59.1158
0.568	58.5622
0.562	58.0345
0.556	57.5308
0.55	57.0971
0.544	56.7196
0.538	56.401
0.532	56.0991
0.526	55.8052
0.52	55.518
0.514	55.185
0.508	54.81
0.502	54.3924
0.496	53.9758
0.49	53.4978
0.484	52.9515
0.478	52.3229
0.472	51.6027
0.466	50.8389
0.46	50.0295
0.454	49.2166
0.448	48.4401
0.442	47.6935
0.436	47.0259
0.43	46.4277
0.424	45.7916
0.418	45.0361
0.412	42.9066
0.406	38.2946
0.4	42.1146
