Name: Andesine (Feldspar) (NaSi,CaAl)AlSi_2O_8
Type: Mineral
Class: Silicates
Subclass: Tectosilicates
Particle Size: 0-45um
Sample No.: TS-4A
Owner: JPL
Wavelength Range: VNIR-SWIR
Measurement: Hemispherical reflectance
X Units: Wavelength (micrometers)
Y Units: Reflectance (percent)
wavelength	value
0.4	63.83
0.403	64.27
0.406	64.54
0.409	64.78
0.412	65.32
0.415	65.56
0.418	65.91
0.421	66.36
0.424	66.85
0.427	67.13
0.43	67.44
0.433	68.03
0.436	68.44
0.439	68.87
0.442	69.26
0.445	69.62
0.448	69.69
0.451	70.08
0.454	70.27
0.457	70.42
0.46	70.62
0.463	70.96
0.466	70.96
0.469	71.13
0.472	71.41
0.475	71.5
0.478	71.59
0.481	71.8
0.484	72.15
0.487	72.19
0.49	72.43
0.493	72.81
0.496	73.12
0.499	73.35
0.502	73.69
0.505	74.06
0.508	74.24
0.511	74.48
0.514	74.85
0.517	75.21
0.52	75.43
0.523	75.65
0.526	76.12
0.529	76.43
0.532	76.55
0.535	76.68
0.538	77.28
0.541	77.44
0.544	77.81
0.547	77.86
0.55	78.29
0.553	78.74
0.556	78.73
0.559	78.92
0.562	79.49
0.565	79.6
0.568	79.68
0.571	79.9
0.574	79.75
0.577	79.76
0.58	80.05
0.583	79.99
0.586	80.09
0.589	80.4
0.592	80.5
0.595	80.45
0.598	80.67
0.601	80.95
0.604	80.95
0.607	80.85
0.61	81.06
0.613	81.02
0.616	81.01
0.619	80.94
0.622	81.22
0.625	81.18
0.628	81.1
0.631	81.09
0.634	81.27
0.637	81.35
0.64	81.26
0.643	81.27
0.646	81.39
0.649	81.54
0.652	81.35
0.655	81.51
0.658	81.66
0.661	81.54
0.664	81.53
0.667	81.61
0.67	81.66
0.673	81.64
0.676	81.75
0.679	81.84
0.682	81.85
0.685	81.9
0.688	82
0.691	81.84
0.694	81.96
0.697	82.12
0.7	81.94
0.703	81.93
0.706	82.09
0.709	82.12
0.712	82.07
0.715	82.09
0.718	82.25
0.721	82.16
0.724	82.27
0.727	82.33
0.73	82.27
0.733	82.31
0.736	82.37
0.739	82.36
0.742	82.32
0.745	82.53
0.748	82.36
0.751	82.22
0.754	82.28
0.757	82.66
0.76	82.28
0.763	82.25
0.766	82.4
0.769	82.51
0.772	82.33
0.775	82.44
0.778	82.41
0.781	82.55
0.784	82.41
0.787	82.6
0.79	82.56
0.793	82.48
0.796	82.57
0.799	82.68
0.808	82.38
0.82	82.3
0.832	82.36
0.844	82.33
0.856	82.43
0.868	82.46
0.88	82.17
0.892	82.23
0.904	82.24
0.916	82.33
0.928	82.36
0.94	82.27
0.952	82.28
0.964	82.28
0.976	82.23
0.988	82.34
1	82.29
1.012	82.27
1.024	82.22
1.036	82.2
1.048	82.17
1.06	82.2
1.072	82.14
1.084	82.18
1.096	82.11
1.108	82.16
1.12	82.05
1.132	81.95
1.144	81.89
1.156	81.8
1.168	81.74
1.18	81.71
1.192	81.7
1.204	81.62
1.216	81.48
1.228	81.47
1.24	81.53
1.252	81.47
1.264	81.58
1.276	81.54
1.288	81.45
1.3	81.46
1.312	81.37
1.324	81.38
1.336	81.34
1.348	81.52
1.36	81.54
1.372	81.6
1.384	81.37
1.396	80.97
1.408	80.87
1.42	81.34
1.432	81.7
1.444	81.82
1.456	82.05
1.468	82.1
1.48	82.17
1.492	82.17
1.504	82.28
1.516	82.46
1.528	82.46
1.54	82.48
1.552	82.46
1.564	82.62
1.576	82.68
1.588	82.71
1.6	82.83
1.612	82.84
1.624	82.8
1.636	82.8
1.648	82.9
1.66	82.99
1.672	83.05
1.684	83.08
1.696	83.05
1.708	82.97
1.72	82.97
1.732	82.95
1.744	83.03
1.756	82.97
1.768	82.94
1.78	83
1.792	82.92
1.804	82.99
1.816	82.97
1.828	82.97
1.84	82.9
1.852	82.9
1.864	82.75
1.876	82.66
1.888	82.26
1.9	81.72
1.912	81.75
1.924	81.8
1.936	82.02
1.948	82.02
1.96	82.16
1.972	82.29
1.984	82.46
1.996	82.84
2.008	82.95
2.02	83.13
2.032	83.18
2.044	83.25
2.056	83.25
2.068	83.29
2.08	83.28
2.092	83.46
2.104	83.59
2.116	83.72
2.128	83.57
2.14	83.38
2.152	83.01
2.164	82.59
2.176	81.97
2.188	81.66
2.2	81.76
2.212	81.99
2.224	82.34
2.236	82.39
2.248	82.37
2.26	82.44
2.272	82.54
2.284	82.46
2.296	82.46
2.308	82.32
2.32	82.29
2.332	82.03
2.344	82.1
2.356	82.07
2.368	82.06
2.38	81.97
2.392	81.83
2.404	81.61
2.416	81.44
2.428	81.23
2.44	81.17
2.452	80.97
2.464	80.9
2.476	80.86
2.488	81.19
2.5	81.29
