Name: Sphalerite (Zn,Fe)S
Type: Mineral
Class: Sulfides
Particle Size: 0-45um
Sample No.: S-1A
Owner: JPL
Origin: USA, Oklahoma, Ottawa County, Picher.
Measurement: Hemispherical reflectance
X Units: Wavelength (micrometers)
Y Units: Reflectance (percent)
wavelength	value
2.5	14.6758
2.494	14.4025
2.488	14.6438
2.482	14.9988
2.476	14.931
2.47	15.1255
2.464	15.3688
2.458	15.4776
2.452	15.8271
2.446	15.9512
2.44	16.1382
2.434	16.3042
2.428	16.5954
2.422	16.8288
2.416	17.035
2.41	17.1919
2.404	17.4621
2.398	17.6521
2.392	17.966
2.386	18.1313
2.38	18.4251
2.374	18.7745
2.368	18.9922
2.362	19.3378
2.356	19.6701
2.35	19.9187
2.344	20.2129
2.338	20.5486
2.332	20.8588
2.326	21.1546
2.32	21.5472
2.314	21.8743
2.308	22.2412
2.302	22.5825
2.296	22.9565
2.29	23.3407
2.284	23.8112
2.278	24.2422
2.272	24.6567
2.266	25.0449
2.26	25.4752
2.254	25.9305
2.248	26.419
2.242	26.8728
2.236	27.4533
2.23	27.7806
2.224	28.3547
2.218	28.8787
2.212	29.4951
2.206	30.0289
2.2	30.5661
2.194	31.1398
2.188	31.6841
2.182	32.2306
2.176	32.8785
2.17	33.4274
2.164	34.0093
2.158	34.6863
2.152	35.3165
2.146	35.912
2.14	36.4503
2.134	37.0637
2.128	37.5877
2.122	38.0943
2.116	38.502
2.11	38.9233
2.104	39.4347
2.098	39.8937
2.092	40.5436
2.086	41.1231
2.08	41.7347
2.074	42.2952
2.068	42.8654
2.062	43.433
2.056	43.9794
2.05	44.5524
2.044	45.0471
2.038	45.6148
2.032	46.1075
2.026	46.5927
2.02	47.0153
2.014	47.442
2.008	47.873
2.002	48.2543
1.996	48.5867
1.99	48.9613
1.984	49.2679
1.978	49.5455
1.972	49.8072
1.966	50.1261
1.96	50.4114
1.954	50.6752
1.948	50.9691
1.942	51.0763
1.936	51.3099
1.93	51.7002
1.924	51.898
1.918	51.9754
1.912	52.2468
1.906	52.4326
1.9	52.5457
1.894	52.7462
1.888	52.9028
1.882	52.963
1.876	53.1389
1.87	53.1012
1.864	53.2046
1.858	53.2543
1.852	53.2999
1.846	53.2985
1.84	53.3466
1.834	53.2682
1.828	53.3013
1.822	53.2799
1.816	53.3182
1.81	53.2464
1.804	53.2707
1.798	53.2099
1.792	53.1142
1.786	53.0528
1.78	53.0311
1.774	52.9145
1.768	52.8115
1.762	52.7236
1.756	52.6821
1.75	52.5931
1.744	52.5334
1.738	52.4456
1.732	52.3723
1.726	52.3078
1.72	52.2913
1.714	52.1432
1.708	52.0643
1.702	51.9547
1.696	51.9318
1.69	51.7442
1.684	51.7621
1.678	51.7011
1.672	51.6811
1.666	51.7092
1.66	51.631
1.654	51.552
1.648	51.6197
1.642	51.6634
1.636	51.5937
1.63	51.5043
1.624	51.5455
1.618	51.5868
1.612	51.5443
1.606	51.4968
1.6	51.5616
1.594	51.6296
1.588	51.5368
1.582	51.5497
1.576	51.5195
1.57	51.5593
1.564	51.5057
1.558	51.4321
1.552	51.4724
1.546	51.4649
1.54	51.4512
1.534	51.4959
1.528	51.4662
1.522	51.4881
1.516	51.4742
1.51	51.4109
1.504	51.4185
1.498	51.4278
1.492	51.4212
1.486	51.3964
1.48	51.4278
1.474	51.3797
1.468	51.3646
1.462	51.4142
1.456	51.3595
1.45	51.4069
1.444	51.3742
1.438	51.3719
1.432	51.4342
1.426	51.3687
1.42	51.3372
1.414	51.351
1.408	51.3515
1.402	51.375
1.396	51.4101
1.39	51.4369
1.384	51.5182
1.378	51.4335
1.372	51.3975
1.366	51.4535
1.36	51.3635
1.354	51.3014
1.348	51.4081
1.342	51.4443
1.336	51.4129
1.33	51.411
1.324	51.4693
1.318	51.5262
1.312	51.5096
1.306	51.4523
1.3	51.532
1.294	51.4331
1.288	51.4641
1.282	51.4294
1.276	51.5087
1.27	51.4524
1.264	51.5123
1.258	51.4565
1.252	51.4859
1.246	51.4795
1.24	51.5254
1.234	51.5182
1.228	51.4974
1.222	51.4841
1.216	51.5234
1.21	51.4783
1.204	51.5466
1.198	51.4658
1.192	51.4912
1.186	51.5358
1.18	51.5249
1.174	51.5154
1.168	51.5256
1.162	51.4845
1.156	51.5501
1.15	51.5312
1.144	51.528
1.138	51.5055
1.132	51.5414
1.126	51.5165
1.12	51.4892
1.114	51.5213
1.108	51.5214
1.102	51.5215
1.096	51.4764
1.09	51.5152
1.084	51.5279
1.078	51.5028
1.072	51.4776
1.066	51.3697
1.06	51.4374
1.054	51.4106
1.048	51.3762
1.042	51.4091
1.036	51.4119
1.03	51.3821
1.024	51.4584
1.018	51.4026
1.012	51.3545
1.006	51.3472
1	51.3159
0.994	51.2619
0.988	51.1949
0.982	51.2317
0.976	51.1247
0.97	51.0809
0.964	51.0544
0.958	51.1018
0.952	50.9796
0.946	50.9733
0.94	50.8755
0.934	50.9068
0.928	50.7605
0.922	50.6364
0.916	50.5355
0.91	50.4884
0.904	50.3194
0.898	50.2354
0.892	50.1591
0.886	50.005
0.88	49.8988
0.874	49.7441
0.868	49.5231
0.862	49.4549
0.856	49.1282
0.85	49.08
0.844	48.9993
0.838	48.8835
0.832	48.7813
0.826	48.6478
0.82	48.5429
0.814	48.3791
0.808	48.317
0.802	48.1647
0.796	47.9951
0.79	47.8379
0.784	47.6746
0.778	47.5237
0.772	47.3258
0.766	47.1699
0.76	46.9683
0.754	46.7294
0.748	46.4738
0.742	46.1835
0.736	45.7984
0.73	45.3894
0.724	44.9756
0.718	44.4825
0.712	43.9934
0.706	43.4724
0.7	42.9643
0.694	42.5292
0.688	42.0912
0.682	41.7061
0.676	41.3341
0.67	40.9768
0.664	40.605
0.658	40.2523
0.652	39.8949
0.646	39.5506
0.64	39.2337
0.634	38.985
0.628	38.7764
0.622	38.6043
0.616	38.4211
0.61	38.1986
0.604	37.8979
0.598	37.5376
0.592	37.1886
0.586	36.7604
0.58	36.2788
0.574	35.7758
0.568	35.2622
0.562	34.7357
0.556	34.0509
0.55	33.3368
0.544	32.6097
0.538	31.906
0.532	31.1283
0.526	30.3231
0.52	29.5109
0.514	28.6853
0.508	27.8087
0.502	26.8976
0.496	26.0522
0.49	25.3468
0.484	24.6489
0.478	23.8968
0.472	22.9858
0.466	22.1754
0.46	21.5892
0.454	20.9344
0.448	20.1081
0.442	19.2508
0.436	18.5546
0.43	17.9784
0.424	17.4155
0.418	16.7896
0.412	15.9618
0.406	14.9624
0.4	13.885
