Name: Magnetite Fe^2+Fe_2^3+O_4
Type: Mineral
Class: Oxides
Particle Size: 45-125um
Sample No.: O-4A
Owner: JPL
Wavelength Range: VNIR-SWIR
Origin: Canada, Ontario, Haliburton County, Wilberforce
Measurement: Hemispherical reflectance
X Units: Wavelength (micrometers)
Y Units: Reflectance (percent)
wavelength	value
0.4	5.88
0.403	5.73
0.406	5.84
0.409	5.83
0.412	5.77
0.415	5.72
0.418	5.65
0.421	5.71
0.424	5.75
0.427	5.65
0.43	5.7
0.433	5.65
0.436	5.71
0.439	5.68
0.442	5.5
0.445	5.64
0.448	5.58
0.451	5.53
0.454	5.56
0.457	5.4
0.46	5.51
0.463	5.46
0.466	5.51
0.469	5.44
0.472	5.58
0.475	5.5
0.478	5.5
0.481	5.43
0.484	5.55
0.487	5.53
0.49	5.52
0.493	5.61
0.496	5.41
0.499	5.51
0.502	5.44
0.505	5.49
0.508	5.44
0.511	5.44
0.514	5.49
0.517	5.44
0.52	5.43
0.523	5.43
0.526	5.41
0.529	5.47
0.532	5.41
0.535	5.39
0.538	5.35
0.541	5.38
0.544	5.29
0.547	5.38
0.55	5.4
0.553	5.32
0.556	5.45
0.559	5.47
0.562	5.48
0.565	5.4
0.568	5.46
0.571	5.35
0.574	5.44
0.577	5.46
0.58	5.41
0.583	5.46
0.586	5.35
0.589	5.41
0.592	5.42
0.595	5.41
0.598	5.43
0.601	5.39
0.604	5.35
0.607	5.46
0.61	5.45
0.613	5.37
0.616	5.32
0.619	5.44
0.622	5.39
0.625	5.43
0.628	5.37
0.631	5.44
0.634	5.39
0.637	5.39
0.64	5.44
0.643	5.33
0.646	5.45
0.649	5.44
0.652	5.44
0.655	5.38
0.658	5.41
0.661	5.43
0.664	5.38
0.667	5.32
0.67	5.28
0.673	5.38
0.676	5.27
0.679	5.32
0.682	5.33
0.685	5.21
0.688	5.33
0.691	5.37
0.694	5.27
0.697	5.32
0.7	5.26
0.703	5.32
0.706	5.25
0.709	5.31
0.712	5.26
0.715	5.27
0.718	5.32
0.721	5.19
0.724	5.27
0.727	5.37
0.73	5.43
0.733	5.55
0.736	5.38
0.739	5.49
0.742	5.37
0.745	5.43
0.748	5.37
0.751	5.31
0.754	5.38
0.757	5.37
0.76	5.31
0.763	5.32
0.766	5.3
0.769	5.3
0.772	5.2
0.775	5.25
0.778	5.19
0.781	5.24
0.784	5.13
0.787	5.06
0.79	4.9
0.793	5.01
0.796	5.01
0.799	4.99
0.808	5.09
0.82	5.02
0.832	4.92
0.844	4.87
0.856	4.81
0.868	4.76
0.88	4.82
0.892	4.7
0.904	4.7
0.916	4.63
0.928	4.58
0.94	4.52
0.952	4.52
0.964	4.51
0.976	4.52
0.988	4.46
1	4.45
1.012	4.41
1.024	4.38
1.036	4.41
1.048	4.29
1.06	4.44
1.072	4.5
1.084	4.54
1.096	4.52
1.108	4.46
1.12	4.5
1.132	4.52
1.144	4.5
1.156	4.5
1.168	4.61
1.18	4.68
1.192	4.76
1.204	4.76
1.216	4.74
1.228	4.87
1.24	4.96
1.252	5.14
1.264	5.13
1.276	5.2
1.288	5.24
1.3	5.26
1.312	5.29
1.324	5.39
1.336	5.35
1.348	5.49
1.36	5.41
1.372	5.57
1.384	5.61
1.396	5.68
1.408	5.7
1.42	5.81
1.432	5.86
1.444	5.94
1.456	5.98
1.468	6.03
1.48	6.14
1.492	6.19
1.504	6.29
1.516	6.34
1.528	6.37
1.54	6.5
1.552	6.58
1.564	6.67
1.576	6.66
1.588	6.69
1.6	6.74
1.612	6.84
1.624	6.87
1.636	6.96
1.648	7.03
1.66	7.07
1.672	7.15
1.684	7.22
1.696	7.25
1.708	7.33
1.72	7.34
1.732	7.34
1.744	7.41
1.756	7.41
1.768	7.55
1.78	7.55
1.792	7.63
1.804	7.66
1.816	7.64
1.828	7.75
1.84	7.77
1.852	7.79
1.864	7.82
1.876	7.89
1.888	7.94
1.9	8
1.912	8.1
1.924	8.19
1.936	8.25
1.948	8.19
1.96	8.31
1.972	8.33
1.984	8.33
1.996	8.41
2.008	8.43
2.02	8.47
2.032	8.55
2.044	8.58
2.056	8.63
2.068	8.64
2.08	8.67
2.092	8.65
2.104	8.77
2.116	8.78
2.128	8.81
2.14	8.83
2.152	8.84
2.164	8.85
2.176	8.85
2.188	8.91
2.2	8.97
2.212	8.98
2.224	8.96
2.236	9.06
2.248	9.02
2.26	9.1
2.272	9.08
2.284	9.14
2.296	9.2
2.308	9.28
2.32	9.28
2.332	9.31
2.344	9.38
2.356	9.38
2.368	9.42
2.38	9.35
2.392	9.42
2.404	9.41
2.416	9.5
2.428	9.5
2.44	9.5
2.452	9.53
2.464	9.55
2.476	9.63
2.488	9.63
2.5	9.68
