Name: Dolomite Marble
Type: Rock
Class: Metamorphic
Subclass: Marble
Particle Size: Solid surface
Sample No.: Ward97.txt
Owner: JPL
Origin: Ward's Collection of American Rocks.  Sample locality - Thornwood, Westchester County, New York.  Collected by - JPL.
Description: A coarse granular marble composed mainly of dolomite.
Measurement: Hemispherical reflectance
X Units: Wavelength (micrometers)
Y Units: Reflectance (percent)
wavelength	value
15.3871	3.63037
15.118	2.98232
14.8581	4.01276
14.6069	3.73002
14.3642	4.15347
14.1293	3.64628
13.9021	4.50505
13.682	4.70421
13.4687	2.50821
13.2621	3.90374
13.0616	4.19991
12.8672	4.78198
12.6784	5.00254
12.4951	5.48346
12.317	5.4414
12.1439	5.95731
11.9757	5.89449
11.812	5.95964
11.6527	5.78241
11.4977	7.34082
11.3468	13.1009
11.1997	24.9232
11.0564	6.51778
10.9168	4.98146
10.7806	4.9759
10.6478	5.14333
10.5182	5.48646
10.3917	5.96488
10.2683	5.77416
10.1477	6.11948
10.0299	6.11103
9.9148	6.61965
9.8024	6.68892
9.6925	6.63962
9.585	6.88688
9.4798	6.78305
9.377	6.74944
9.2763	6.52112
9.1778	6.65263
9.0814	6.251
8.987	6.27853
8.8945	6.27136
8.8039	6.58142
8.7151	6.84301
8.6281	6.64601
8.5428	6.66296
8.4592	6.79886
8.3772	6.62448
8.2967	6.71592
8.2179	6.8407
8.1404	7.08024
8.0645	7.15945
7.9899	7.33094
7.9167	7.49025
7.8449	7.93899
7.7743	8.18731
7.705	8.20518
7.6369	8.53899
7.57	8.98114
7.5043	9.70254
7.4397	10.1085
7.3762	10.6219
7.3138	11.6748
7.2524	12.9192
7.1921	14.3848
7.1327	17.2226
7.0743	20.2375
7.0169	29.1193
6.9604	31.1393
6.9047	31.9909
6.85	33.7004
6.7962	36.0751
6.7431	37.7309
6.6909	40.6208
6.6395	45.98
6.5889	49.7871
6.539	51.4443
6.49	53.4414
6.4416	52.3909
6.3939	49.7724
6.347	34.1073
6.3007	15.3284
6.2551	6.9931
6.2101	3.85965
6.1658	2.21366
6.1222	1.35489
6.0791	1.31518
6.0366	0.83641
5.9948	1.00356
5.9535	0.78282
5.9127	1.0118
5.8726	1.21623
5.8329	1.16772
5.7938	1.38943
5.7552	1.19718
5.7172	1.43756
5.6796	1.82888
5.6425	1.65787
5.6059	1.83845
5.5698	1.842
5.5341	2.01079
5.4989	1.93937
5.4641	1.70035
5.4298	2.16494
5.3959	2.59026
5.3624	2.9249
5.3294	3.04598
5.2967	3.2994
5.2644	3.63658
5.2326	3.94808
5.2011	4.28825
5.17	4.67973
5.1392	4.98125
5.1088	5.53116
5.0788	5.28351
5.0491	5.24882
5.0198	6.15663
4.9908	6.55456
4.9622	6.88209
4.9338	6.86859
4.9058	7.26609
4.8781	7.46543
4.8508	7.47978
4.8237	7.36572
4.7969	7.64953
4.7704	7.475
4.7443	7.41804
4.7184	6.95833
4.6927	6.31448
4.6674	5.22852
4.6423	4.74443
4.6175	4.86425
4.593	5.0473
4.5687	5.69418
4.5447	5.91345
4.5209	6.58932
4.4974	7.20246
4.4741	7.14312
4.451	6.78356
4.4282	6.28218
4.4057	6.98203
4.3833	7.61664
4.3612	8.15661
4.3393	7.24255
4.3176	6.73822
4.2962	6.44675
4.2749	5.93626
4.2539	6.81791
4.233	7.28008
4.2124	8.09074
4.192	8.31616
4.1717	8.21743
4.1517	7.81448
4.1319	7.86646
4.1122	7.67133
4.0927	7.15058
4.0734	6.64745
4.0543	6.3222
4.0354	5.81239
4.0166	4.899
3.9981	4.26891
3.9796	4.16397
3.9614	3.95997
3.9433	3.59554
3.9254	3.87487
3.9077	3.9013
3.8901	4.18353
3.8726	4.15817
3.8554	4.32166
3.8382	4.89149
3.8213	4.40481
3.8045	4.48026
3.7878	4.47009
3.7713	4.53878
3.7549	5.44571
3.7386	6.8771
3.7225	7.39265
3.7066	8.01023
3.6907	9.04515
3.675	9.22038
3.6595	9.63918
3.644	9.96876
3.6287	9.75788
3.6136	9.89409
3.5985	10.0728
3.5836	9.19549
3.5688	9.31947
3.5541	7.81422
3.5396	7.56185
3.5251	6.92827
3.5108	5.59032
3.4966	4.84979
3.4825	4.67322
3.4685	4.03839
3.4547	4.1946
3.4409	4.28113
3.4273	3.87169
3.4137	4.46598
3.4003	4.64083
3.387	4.43818
3.3738	4.61012
3.3606	4.89416
3.3476	4.48181
3.3347	4.49656
3.3219	4.64693
3.3092	3.88565
3.2965	4.92219
3.284	5.61209
3.2716	7.20183
3.2593	6.65782
3.247	7.19116
3.2348	7.39431
3.2228	8.04029
3.2108	7.86025
3.1989	7.38798
3.1871	7.9703
3.1754	8.05372
3.1638	7.8259
3.1523	7.78624
3.1408	7.42278
3.1294	7.38309
3.1181	7.49172
3.1069	7.81116
3.0958	8.10522
3.0848	6.45208
3.0738	6.57798
3.0629	7.32406
3.0521	7.1282
3.0413	6.82404
3.0307	7.3569
3.0201	7.77354
3.0096	7.99602
2.9991	8.10387
2.9887	7.04876
2.9784	6.70563
2.9682	7.60073
2.9581	7.87849
2.948	7.58492
2.9379	7.21465
2.928	7.23322
2.9181	8.03435
2.9083	8.48264
2.8985	9.11214
2.8888	7.82416
2.8792	7.88598
2.8697	8.93067
2.8602	8.83482
2.8507	8.9478
2.8413	8.12867
2.832	9.31253
2.8228	9.4766
2.8136	9.13803
2.8045	8.5182
2.7954	8.80024
2.7864	8.8747
2.7774	7.78783
2.7685	8.67544
2.7597	8.99901
2.7509	9.99024
2.7422	10.2621
2.7335	12.3446
2.7249	13.8446
2.7163	14.6794
2.7078	16.7733
2.6994	16.4365
2.691	17.3242
2.6826	18.7977
2.6743	22.559
2.666	24.7137
2.6578	26.6804
2.6497	27.7626
2.6416	28.3282
2.6336	28.9996
2.6256	29.3937
2.6176	30.543
2.6097	30.0494
2.6018	30.421
2.594	29.9712
2.5863	29.6121
2.5785	29.6067
2.5709	27.0098
2.5633	26.3896
2.5557	24.2047
2.5481	20.4674
2.5406	17.7156
2.5332	13.2325
2.5258	12.7523
2.5184	12.8466
2.5111	11.6284
2.5038	12.7429
2.4966	13.4217
2.4894	13.4388
2.4823	13.5377
2.4752	15.583
2.4681	15.5725
2.4611	15.8493
2.4541	16.6282
2.4471	16.9642
2.4402	18.8757
2.4333	20.59
2.4265	22.3644
2.4197	25.1239
2.413	26.1716
2.4063	27.0319
2.3996	26.7155
2.3929	28.7211
2.3863	28.1586
2.3798	29.8339
2.3732	31.3199
2.3667	31.891
2.3603	31.5168
2.3538	30.6297
2.3474	25.4211
2.3411	20.5813
2.3347	19.2231
2.3285	17.3648
2.3222	17.8119
2.316	17.3189
2.3098	18.2773
2.3036	18.4753
2.2975	18.0311
2.2914	20.6452
2.2854	19.9369
2.2793	21.009
2.2733	20.3657
2.2674	21.6242
2.2614	22.7429
2.2555	24.641
2.2497	26.4335
2.2438	27.6591
2.238	29.8802
2.2322	32.1325
2.2265	31.1599
2.2208	32.3367
2.2151	33.9623
2.2094	36.3779
2.2038	36.1747
2.1982	37.7486
2.1926	38.7306
2.187	39.5712
2.1815	38.9701
2.176	39.9509
2.1706	41.2519
2.1651	42.1688
2.1597	41.8961
2.1543	37.331
2.149	37.6457
2.1436	39.1539
2.1383	38.3049
2.1331	38.4074
2.1278	39.0982
2.1226	38.5809
2.1174	38.8726
2.1122	42.94
2.1071	40.92
2.1019	42.9182
2.0968	41.7513
2.0918	43.5262
2.0867	44.1435
2.0817	45.7265
2.0767	43.9135
2.0717	42.9783
2.0667	45.4231
2.0618	44.7686
2.0569	46.5714
2.052	43.9455
2.0472	44.8667
2.0423	45.1592
2.0375	45.0067
2.0327	46.4762
2.028	43.9703
2.0232	43.8177
2.0185	42.7533
2.0138	43.6142
2.0091	39.6863
2.0044	42.2217
1.9998	40.0179
