Name: Anglesite PbSO_4
Type: Mineral
Class: Sulfates
Particle Size: 45-125um
Sample No.: SO-10A
Owner: JPL
Wavelength Range: VNIR-SWIR
Origin: USA, Arizona, Santa Cruz County, Glove Mine
Measurement: Hemispherical reflectance
X Units: Wavelength (micrometers)
Y Units: Reflectance (percent)
wavelength	value
0.4	19.26
0.403	19.44
0.406	19.53
0.409	19.55
0.412	19.52
0.415	19.78
0.418	19.82
0.421	19.89
0.424	20.12
0.427	20.1
0.43	20.25
0.433	20.28
0.436	20.52
0.439	20.64
0.442	20.69
0.445	20.67
0.448	20.77
0.451	20.89
0.454	21.05
0.457	21.23
0.46	21.18
0.463	21.3
0.466	21.48
0.469	21.46
0.472	21.67
0.475	21.81
0.478	21.83
0.481	22.1
0.484	22.19
0.487	22.37
0.49	22.52
0.493	22.6
0.496	22.84
0.499	23.12
0.502	23.27
0.505	23.4
0.508	23.58
0.511	23.65
0.514	23.88
0.517	24.14
0.52	24.31
0.523	24.47
0.526	24.57
0.529	24.87
0.532	24.97
0.535	25.13
0.538	25.3
0.541	25.44
0.544	25.52
0.547	25.81
0.55	25.92
0.553	26.06
0.556	26.19
0.559	26.19
0.562	26.65
0.565	26.76
0.568	26.85
0.571	26.94
0.574	27.06
0.577	27.2
0.58	27.15
0.583	27.27
0.586	27.47
0.589	27.61
0.592	27.75
0.595	27.87
0.598	27.92
0.601	28.17
0.604	28.27
0.607	28.38
0.61	28.51
0.613	28.55
0.616	28.73
0.619	28.69
0.622	28.78
0.625	28.9
0.628	29.05
0.631	29.07
0.634	29.08
0.637	29.26
0.64	29.39
0.643	29.42
0.646	29.55
0.649	29.66
0.652	29.84
0.655	29.88
0.658	30.05
0.661	30.07
0.664	30.15
0.667	30.28
0.67	30.34
0.673	30.51
0.676	30.5
0.679	30.59
0.682	30.74
0.685	30.87
0.688	30.95
0.691	31.07
0.694	31.09
0.697	31.24
0.7	31.32
0.703	31.45
0.706	31.53
0.709	31.59
0.712	31.7
0.715	31.88
0.718	32.03
0.721	32.05
0.724	32.03
0.727	32.15
0.73	32.2
0.733	32.31
0.736	32.41
0.739	32.52
0.742	32.56
0.745	32.62
0.748	32.73
0.751	32.85
0.754	32.92
0.757	32.91
0.76	33
0.763	33.02
0.766	33.19
0.769	33.29
0.772	33.38
0.775	33.4
0.778	33.44
0.781	33.5
0.784	33.69
0.787	33.65
0.79	33.78
0.793	33.8
0.796	33.85
0.799	33.97
0.808	34.88
0.82	35.09
0.832	35.45
0.844	35.79
0.856	36.12
0.868	36.38
0.88	36.57
0.892	36.75
0.904	36.98
0.916	37.18
0.928	37.41
0.94	37.63
0.952	37.97
0.964	38.14
0.976	38.37
0.988	38.64
1	39.04
1.012	39.17
1.024	39.42
1.036	39.68
1.048	39.81
1.06	40.01
1.072	40.24
1.084	40.46
1.096	40.72
1.108	40.91
1.12	41.25
1.132	41.49
1.144	41.75
1.156	42.13
1.168	42.55
1.18	42.89
1.192	43.26
1.204	43.67
1.216	44
1.228	44.37
1.24	44.63
1.252	44.87
1.264	45.07
1.276	45.26
1.288	45.42
1.3	45.47
1.312	45.52
1.324	45.62
1.336	45.65
1.348	45.71
1.36	45.82
1.372	45.8
1.384	45.94
1.396	45.97
1.408	45.95
1.42	45.99
1.432	46.06
1.444	46.16
1.456	46.17
1.468	46.16
1.48	46.19
1.492	46.22
1.504	46.26
1.516	46.31
1.528	46.31
1.54	46.4
1.552	46.49
1.564	46.43
1.576	46.5
1.588	46.56
1.6	46.62
1.612	46.61
1.624	46.63
1.636	46.68
1.648	46.67
1.66	46.77
1.672	46.82
1.684	46.8
1.696	46.85
1.708	46.82
1.72	46.79
1.732	46.82
1.744	46.79
1.756	46.82
1.768	46.82
1.78	46.85
1.792	46.94
1.804	46.92
1.816	46.95
1.828	46.97
1.84	47.01
1.852	47
1.864	46.93
1.876	46.98
1.888	46.85
1.9	46.87
1.912	46.86
1.924	46.82
1.936	46.96
1.948	46.94
1.96	46.97
1.972	47.13
1.984	47.15
1.996	47.25
2.008	47.39
2.02	47.49
2.032	47.55
2.044	47.56
2.056	47.58
2.068	47.64
2.08	47.81
2.092	47.92
2.104	47.98
2.116	48.14
2.128	48.13
2.14	48.14
2.152	48.06
2.164	48.05
2.176	48.03
2.188	48
2.2	48.15
2.212	48.07
2.224	48.17
2.236	48.22
2.248	48.2
2.26	48.32
2.272	48.31
2.284	48.36
2.296	48.39
2.308	48.51
2.32	48.7
2.332	48.78
2.344	48.85
2.356	48.81
2.368	48.81
2.38	48.75
2.392	48.76
2.404	48.72
2.416	48.8
2.428	48.78
2.44	48.8
2.452	48.81
2.464	48.92
2.476	49
2.488	49.36
2.5	49.7
