Name: Fluorite CaF_2
Type: Mineral
Class: Halides
Particle Size: 0-45um
Sample No.: H-2A
Owner: JPL
Origin: USA, Illinois, Hardin County, Rosiclare.
Description: Purple fluorite.
Measurement: Hemispherical reflectance
X Units: Wavelength (micrometers)
Y Units: Reflectance (percent)
wavelength	value
2.5	89.2111
2.494	88.8686
2.488	88.8864
2.482	88.8583
2.476	88.894
2.47	89.015
2.464	89.0901
2.458	89.0887
2.452	89.3097
2.446	89.4042
2.44	89.5406
2.434	89.6707
2.428	89.8208
2.422	89.8417
2.416	90.0266
2.41	90.1576
2.404	90.1403
2.398	90.2192
2.392	90.3752
2.386	90.5513
2.38	90.56
2.374	90.7346
2.368	90.8431
2.362	91.0029
2.356	91.0486
2.35	91.0959
2.344	91.1411
2.338	91.179
2.332	91.1743
2.326	91.1148
2.32	91.1539
2.314	91.1203
2.308	91.0899
2.302	91.1826
2.296	91.1172
2.29	91.1109
2.284	91.1129
2.278	91.1678
2.272	91.0933
2.266	91.107
2.26	91.1707
2.254	91.1574
2.248	91.0957
2.242	91.125
2.236	91.1943
2.23	91.2627
2.224	91.3248
2.218	91.4342
2.212	91.5051
2.206	91.6225
2.2	91.8331
2.194	91.8417
2.188	92.0234
2.182	92.0652
2.176	92.1897
2.17	92.3529
2.164	92.4784
2.158	92.6632
2.152	92.8089
2.146	92.758
2.14	92.8095
2.134	92.7758
2.128	92.5695
2.122	92.3045
2.116	91.9503
2.11	91.7552
2.104	91.3925
2.098	91.3003
2.092	91.344
2.086	91.4283
2.08	91.4093
2.074	91.545
2.068	91.5619
2.062	91.7077
2.056	91.741
2.05	91.8275
2.044	91.9191
2.038	91.9084
2.032	91.9662
2.026	91.9775
2.02	91.9499
2.014	91.9912
2.008	91.8626
2.002	91.838
1.996	91.8609
1.99	91.7285
1.984	91.6563
1.978	91.5119
1.972	91.4868
1.966	91.415
1.96	91.3505
1.954	91.3258
1.948	91.3505
1.942	91.3671
1.936	91.2769
1.93	91.3116
1.924	91.3259
1.918	91.5307
1.912	91.6171
1.906	91.8117
1.9	92.023
1.894	92.2158
1.888	92.3766
1.882	92.5444
1.876	92.606
1.87	92.7156
1.864	92.7594
1.858	92.8429
1.852	92.8445
1.846	92.8579
1.84	92.8733
1.834	92.9103
1.828	92.9613
1.822	92.9474
1.816	92.9498
1.81	93.0138
1.804	93.038
1.798	92.9774
1.792	92.9904
1.786	92.9775
1.78	92.965
1.774	92.9716
1.768	92.9489
1.762	92.9586
1.756	93.0041
1.75	92.9651
1.744	92.9813
1.738	93.0302
1.732	93.0723
1.726	93.0697
1.72	93.1228
1.714	93.1229
1.708	93.1672
1.702	93.0493
1.696	93.1215
1.69	93.0486
1.684	93.0261
1.678	93.0096
1.672	93.0668
1.666	93.0537
1.66	93.1017
1.654	93.0985
1.648	93.0968
1.642	93.0571
1.636	93.1202
1.63	93.097
1.624	93.0913
1.618	93.1041
1.612	93.095
1.606	93.1483
1.6	93.1786
1.594	93.0483
1.588	93.1285
1.582	93.1352
1.576	93.0153
1.57	93.0771
1.564	93.0521
1.558	93.0166
1.552	93.0987
1.546	93.0336
1.54	93.007
1.534	93.031
1.528	93.0125
1.522	92.9676
1.516	92.9675
1.51	92.9698
1.504	92.9113
1.498	92.904
1.492	92.945
1.486	92.9448
1.48	92.9255
1.474	92.8983
1.468	92.8684
1.462	92.8652
1.456	92.7919
1.45	92.8488
1.444	92.8162
1.438	92.879
1.432	92.7689
1.426	92.8332
1.42	92.7915
1.414	92.779
1.408	92.8269
1.402	92.8416
1.396	92.9332
1.39	93.0254
1.384	93.0844
1.378	93.0446
1.372	93.0706
1.366	93.0429
1.36	93.0785
1.354	92.9539
1.348	92.924
1.342	92.9389
1.336	92.9886
1.33	93.0955
1.324	92.9019
1.318	92.9806
1.312	93.009
1.306	92.9137
1.3	92.9958
1.294	92.9437
1.288	92.9968
1.282	92.9275
1.276	93.0216
1.27	92.9187
1.264	92.9775
1.258	92.8969
1.252	92.9435
1.246	92.913
1.24	92.9575
1.234	92.8906
1.228	92.8881
1.222	92.9706
1.216	92.861
1.21	92.9377
1.204	92.8772
1.198	92.8654
1.192	92.8755
1.186	92.8704
1.18	92.9716
1.174	92.9092
1.168	92.9676
1.162	92.8649
1.156	92.9312
1.15	92.9418
1.144	92.9114
1.138	92.8655
1.132	92.9618
1.126	92.9094
1.12	92.9751
1.114	92.9002
1.108	92.9351
1.102	92.9714
1.096	93.0252
1.09	92.895
1.084	92.9274
1.078	93.0342
1.072	92.9205
1.066	92.9197
1.06	92.9503
1.054	92.9581
1.048	92.9578
1.042	92.9876
1.036	92.9574
1.03	92.9744
1.024	92.9359
1.018	92.9124
1.012	93.0074
1.006	92.8799
1	92.995
0.994	92.9572
0.988	92.9229
0.982	92.8482
0.976	92.9611
0.97	92.8162
0.964	92.9864
0.958	92.8921
0.952	92.8866
0.946	92.8754
0.94	92.8402
0.934	92.8602
0.928	92.9211
0.922	92.8204
0.916	92.8894
0.91	92.8283
0.904	92.8415
0.898	92.7925
0.892	92.8751
0.886	92.8308
0.88	92.815
0.874	92.8191
0.868	92.8059
0.862	92.7591
0.856	92.8618
0.85	92.8238
0.844	92.8081
0.838	92.8107
0.832	92.7449
0.826	92.7963
0.82	92.6981
0.814	92.7169
0.808	92.7787
0.802	92.7518
0.796	92.615
0.79	92.5352
0.784	92.5506
0.778	92.4772
0.772	92.4051
0.766	92.3899
0.76	92.3224
0.754	92.2925
0.748	92.2369
0.742	92.2207
0.736	92.1678
0.73	92.0888
0.724	92.0256
0.718	91.9764
0.712	91.9263
0.706	91.8657
0.7	91.7847
0.694	91.7073
0.688	91.6676
0.682	91.5615
0.676	91.4725
0.67	91.3694
0.664	91.2715
0.658	91.2267
0.652	91.1112
0.646	90.9779
0.64	90.8315
0.634	90.6811
0.628	90.5232
0.622	90.3238
0.616	90.1408
0.61	89.9326
0.604	89.7032
0.598	89.5113
0.592	89.3046
0.586	89.0402
0.58	88.7783
0.574	88.5209
0.568	88.2477
0.562	87.9913
0.556	87.7145
0.55	87.5082
0.544	87.3839
0.538	87.2721
0.532	87.2322
0.526	87.192
0.52	87.1908
0.514	87.2117
0.508	87.195
0.502	87.1786
0.496	87.1322
0.49	87.0548
0.484	86.9852
0.478	86.9011
0.472	86.7715
0.466	86.6783
0.46	86.5773
0.454	86.4612
0.448	86.2963
0.442	86.1925
0.436	86.0424
0.43	85.9249
0.424	85.8208
0.418	85.786
0.412	85.7196
0.406	85.6611
0.4	85.6119
