Name: Hypersthene (Mg,Fe^2+)_2Si_2O_6
Type: Mineral
Class: Silicates
Subclass: Inosilicates
Particle Size: 0-45um
Sample No.: IN-14A
Owner: JPL
Origin: France, Martinique, Caribbean, Mount Pelee.
Measurement: Hemispherical reflectance
X Units: Wavelength (micrometers)
Y Units: Reflectance (percent)
wavelength	value
2.5	45.2636
2.494	45.3994
2.488	45.4539
2.482	45.4442
2.476	45.3634
2.47	45.2981
2.464	45.336
2.458	45.3812
2.452	45.4292
2.446	45.3876
2.44	45.4701
2.434	45.5018
2.428	45.4717
2.422	45.6001
2.416	45.5532
2.41	45.5397
2.404	45.5077
2.398	45.5581
2.392	45.5821
2.386	45.5206
2.38	45.5054
2.374	45.5923
2.368	45.5861
2.362	45.6247
2.356	45.5531
2.35	45.5462
2.344	45.6071
2.338	45.5103
2.332	45.4389
2.326	45.3746
2.32	45.2671
2.314	45.1967
2.308	45.209
2.302	45.1466
2.296	45.0694
2.29	44.9735
2.284	44.8944
2.278	44.8635
2.272	44.8747
2.266	44.7196
2.26	44.714
2.254	44.6213
2.248	44.4913
2.242	44.5223
2.236	44.4095
2.23	44.3506
2.224	44.2508
2.218	44.297
2.212	44.3527
2.206	44.2013
2.2	44.2357
2.194	44.0507
2.188	44.0088
2.182	44.0352
2.176	43.9561
2.17	43.9061
2.164	43.8539
2.158	43.8598
2.152	43.7895
2.146	43.6262
2.14	43.4336
2.134	43.2447
2.128	42.9821
2.122	42.7379
2.116	42.5228
2.11	42.245
2.104	41.8982
2.098	41.71
2.092	41.563
2.086	41.4903
2.08	41.3429
2.074	41.1897
2.068	41.0686
2.062	40.9708
2.056	40.7343
2.05	40.6101
2.044	40.5209
2.038	40.3601
2.032	40.1481
2.026	40.0132
2.02	39.8121
2.014	39.7388
2.008	39.4867
2.002	39.4256
1.996	39.1543
1.99	39.0566
1.984	38.8499
1.978	38.6888
1.972	38.4776
1.966	38.3441
1.96	38.2097
1.954	38.023
1.948	37.8592
1.942	37.7472
1.936	37.6626
1.93	37.5416
1.924	37.3471
1.918	37.2414
1.912	37.1734
1.906	37.1972
1.9	37.0364
1.894	37.0584
1.888	36.9522
1.882	36.874
1.876	36.9123
1.87	36.7288
1.864	36.7738
1.858	36.7263
1.852	36.6338
1.846	36.5945
1.84	36.6006
1.834	36.5028
1.828	36.5799
1.822	36.4917
1.816	36.4983
1.81	36.5534
1.804	36.5476
1.798	36.5475
1.792	36.578
1.786	36.6282
1.78	36.6912
1.774	36.6284
1.768	36.691
1.762	36.7496
1.756	36.8387
1.75	36.9008
1.744	36.9233
1.738	37.0615
1.732	37.2085
1.726	37.2327
1.72	37.3597
1.714	37.4107
1.708	37.4934
1.702	37.6402
1.696	37.7154
1.69	37.8919
1.684	37.9741
1.678	38.123
1.672	38.1595
1.666	38.3649
1.66	38.5453
1.654	38.6851
1.648	38.7643
1.642	38.9546
1.636	39.0688
1.63	39.1858
1.624	39.402
1.618	39.53
1.612	39.7271
1.606	39.9078
1.6	40.0255
1.594	40.2769
1.588	40.4196
1.582	40.5569
1.576	40.6645
1.57	40.8809
1.564	41.0476
1.558	41.2064
1.552	41.3651
1.546	41.501
1.54	41.7022
1.534	41.8544
1.528	42.0404
1.522	42.1541
1.516	42.3162
1.51	42.4547
1.504	42.6321
1.498	42.7515
1.492	42.8969
1.486	43.0912
1.48	43.2243
1.474	43.3764
1.468	43.4872
1.462	43.6201
1.456	43.7907
1.45	43.8682
1.444	43.9999
1.438	44.0971
1.432	44.2434
1.426	44.3434
1.42	44.3761
1.414	44.532
1.408	44.6473
1.402	44.7368
1.396	44.8419
1.39	45.0171
1.384	45.0904
1.378	45.1504
1.372	45.2268
1.366	45.3534
1.36	45.3284
1.354	45.3955
1.348	45.4855
1.342	45.4738
1.336	45.4827
1.33	45.6054
1.324	45.6401
1.318	45.7831
1.312	45.778
1.306	45.8292
1.3	45.7834
1.294	45.8505
1.288	45.9025
1.282	45.9056
1.276	45.8713
1.27	45.9493
1.264	45.9052
1.258	45.9679
1.252	45.895
1.246	45.9787
1.24	46.0244
1.234	45.9945
1.228	46.0546
1.222	46.0693
1.216	46.0649
1.21	46.0265
1.204	46.0621
1.198	45.984
1.192	46.0452
1.186	46.0166
1.18	46.0937
1.174	46.0255
1.168	46.0875
1.162	46.0239
1.156	46.0002
1.15	45.9822
1.144	45.9839
1.138	45.918
1.132	45.985
1.126	45.7802
1.12	45.7403
1.114	45.6282
1.108	45.5775
1.102	45.4287
1.096	45.3339
1.09	45.0929
1.084	44.8987
1.078	44.6783
1.072	44.4553
1.066	44.1142
1.06	43.7718
1.054	43.3387
1.048	42.883
1.042	42.4432
1.036	41.8675
1.03	41.1959
1.024	40.6383
1.018	39.8297
1.012	39.1076
1.006	38.3757
1	37.4983
0.994	36.5931
0.988	35.7907
0.982	34.9314
0.976	34.03
0.97	33.245
0.964	32.5188
0.958	31.7494
0.952	31.0786
0.946	30.5495
0.94	30.093
0.934	29.6577
0.928	29.3442
0.922	29.1407
0.916	29.0187
0.91	29.0727
0.904	29.1015
0.898	29.217
0.892	29.4588
0.886	29.7582
0.88	30.1365
0.874	30.5713
0.868	31.0348
0.862	31.5777
0.856	32.3409
0.85	33.0887
0.844	33.8515
0.838	34.643
0.832	35.3861
0.826	36.1427
0.82	36.9346
0.814	37.6057
0.808	38.3287
0.802	38.9653
0.796	39.4806
0.79	39.9867
0.784	40.3622
0.778	40.7167
0.772	40.9536
0.766	41.1428
0.76	41.2743
0.754	41.321
0.748	41.3366
0.742	41.2963
0.736	41.1966
0.73	41.0851
0.724	40.9165
0.718	40.7236
0.712	40.517
0.706	40.2724
0.7	40.0235
0.694	39.7608
0.688	39.4798
0.682	39.2051
0.676	38.9168
0.67	38.6337
0.664	38.3792
0.658	38.1076
0.652	37.8574
0.646	37.6043
0.64	37.3813
0.634	37.1509
0.628	36.9227
0.622	36.701
0.616	36.4818
0.61	36.2754
0.604	36.0559
0.598	35.8664
0.592	35.6642
0.586	35.4616
0.58	35.2506
0.574	35.0095
0.568	34.7778
0.562	34.5446
0.556	34.2501
0.55	33.9381
0.544	33.7293
0.538	33.6467
0.532	33.5288
0.526	33.3503
0.52	33.1619
0.514	32.949
0.508	32.668
0.502	32.4419
0.496	32.2197
0.49	31.8629
0.484	31.426
0.478	31.1851
0.472	31.1531
0.466	31.0267
0.46	30.7847
0.454	30.4131
0.448	29.9006
0.442	29.8744
0.436	30.0046
0.43	29.6037
0.424	29.224
0.418	28.9761
0.412	28.3234
0.406	27.4887
0.4	26.6801
