Name: Cordierite Mg_2Al_3(Si_5Al)O_18
Type: Mineral
Class: Silicates
Subclass: Cyclosilicates
Particle Size: 0-45um
Sample No.: CS-3A
Owner: JPL
Origin: Canada, Northwest Territories, Mackenzie District, Great Bear Lake.
Measurement: Hemispherical reflectance
X Units: Wavelength (micrometers)
Y Units: Reflectance (percent)
wavelength	value
2.5	63.9772
2.494	64.4476
2.488	64.8665
2.482	65.5462
2.476	65.7971
2.47	66.2721
2.464	66.8311
2.458	67.1323
2.452	67.43
2.446	67.8764
2.44	68.1039
2.434	68.3666
2.428	68.469
2.422	68.7403
2.416	68.9261
2.41	69.0784
2.404	69.2346
2.398	69.4904
2.392	69.6266
2.386	69.7669
2.38	69.8282
2.374	70.0604
2.368	70.0882
2.362	70.246
2.356	70.3108
2.35	70.3796
2.344	70.4981
2.338	70.5029
2.332	70.5046
2.326	70.5156
2.32	70.5994
2.314	70.6464
2.308	70.7017
2.302	70.6803
2.296	70.7371
2.29	70.729
2.284	70.6575
2.278	70.6084
2.272	70.6376
2.266	70.5973
2.26	70.5615
2.254	70.5128
2.248	70.5643
2.242	70.6794
2.236	70.7671
2.23	70.7965
2.224	70.8607
2.218	70.8351
2.212	70.9277
2.206	70.9418
2.2	71.1705
2.194	71.1387
2.188	71.3811
2.182	71.5898
2.176	71.7823
2.17	72.0968
2.164	72.2309
2.158	72.53
2.152	72.6812
2.146	72.7881
2.14	72.8804
2.134	72.8852
2.128	72.7507
2.122	72.5247
2.116	72.3334
2.11	72.0659
2.104	71.8204
2.098	71.7291
2.092	71.7489
2.086	71.8098
2.08	71.9129
2.074	72.0472
2.068	72.171
2.062	72.2634
2.056	72.3514
2.05	72.3751
2.044	72.3563
2.038	72.368
2.032	72.3881
2.026	72.3319
2.02	72.1905
2.014	71.963
2.008	72.118
2.002	72.1036
1.996	71.9583
1.99	71.7745
1.984	71.4734
1.978	71.3057
1.972	70.951
1.966	70.6527
1.96	70.72
1.954	70.6706
1.948	70.6329
1.942	70.6329
1.936	70.464
1.93	70.395
1.924	70.1285
1.918	69.748
1.912	68.2091
1.906	64.1056
1.9	57.7535
1.894	62.5185
1.888	69.8032
1.882	71.5688
1.876	72.1131
1.87	72.1902
1.864	72.2892
1.858	72.1751
1.852	72.0663
1.846	72.0798
1.84	72.1471
1.834	72.2188
1.828	72.2961
1.822	72.456
1.816	72.8107
1.81	73.155
1.804	73.4522
1.798	73.69
1.792	73.7684
1.786	73.7966
1.78	73.885
1.774	74.0083
1.768	74.1102
1.762	74.0182
1.756	74.1404
1.75	74.2179
1.744	74.2419
1.738	74.2404
1.732	74.3126
1.726	74.3202
1.72	74.3345
1.714	74.3333
1.708	74.368
1.702	74.3101
1.696	74.2885
1.69	74.3275
1.684	74.3896
1.678	74.2967
1.672	74.2652
1.666	74.3132
1.66	74.3264
1.654	74.394
1.648	74.2718
1.642	74.3171
1.636	74.2851
1.63	74.2307
1.624	74.2948
1.618	74.31
1.612	74.1991
1.606	74.1244
1.6	74.2262
1.594	74.0815
1.588	74.1124
1.582	74.0486
1.576	73.9959
1.57	73.975
1.564	73.9019
1.558	73.8227
1.552	73.7568
1.546	73.7438
1.54	73.6661
1.534	73.5626
1.528	73.5066
1.522	73.2911
1.516	73.2819
1.51	73.1485
1.504	72.983
1.498	72.8361
1.492	72.6502
1.486	72.5019
1.48	72.2394
1.474	71.8987
1.468	71.0494
1.462	71.4552
1.456	71.3616
1.45	71.0766
1.444	70.7558
1.438	70.3877
1.432	69.8928
1.426	69.4163
1.42	68.6754
1.414	68.1732
1.408	65.9355
1.402	64.4363
1.396	67.7389
1.39	68.0075
1.384	67.7282
1.378	67.3628
1.372	66.9841
1.366	66.5935
1.36	66.252
1.354	65.9388
1.348	65.5563
1.342	65.0408
1.336	64.6274
1.33	64.2229
1.324	63.7219
1.318	63.2968
1.312	62.9065
1.306	62.2747
1.3	61.8766
1.294	61.3182
1.288	60.9362
1.282	60.499
1.276	60.0188
1.27	59.5896
1.264	59.2566
1.258	58.8149
1.252	58.5174
1.246	58.1056
1.24	57.8334
1.234	57.4921
1.228	57.2282
1.222	57.0044
1.216	56.7473
1.21	56.5428
1.204	56.3165
1.198	56.2178
1.192	56.0639
1.186	56.0072
1.18	55.8227
1.174	55.7375
1.168	55.6155
1.162	55.5997
1.156	55.4336
1.15	55.3248
1.144	55.41
1.138	55.3035
1.132	55.3102
1.126	55.1926
1.12	55.1754
1.114	55.0436
1.108	54.9078
1.102	54.7542
1.096	54.5796
1.09	54.4668
1.084	54.3277
1.078	53.9952
1.072	53.8029
1.066	53.5121
1.06	53.2492
1.054	52.8823
1.048	52.5895
1.042	52.3185
1.036	51.9921
1.03	51.6329
1.024	51.3496
1.018	51.122
1.012	50.8778
1.006	50.7263
1	50.5216
0.994	50.4479
0.988	50.2903
0.982	50.3029
0.976	50.3281
0.97	50.38
0.964	50.5096
0.958	50.6622
0.952	50.8349
0.946	51.1754
0.94	51.4324
0.934	51.8689
0.928	52.2284
0.922	52.72
0.916	53.1439
0.91	53.6978
0.904	54.1579
0.898	54.7883
0.892	55.375
0.886	55.9716
0.88	56.5471
0.874	57.2218
0.868	57.8478
0.862	58.5329
0.856	59.5542
0.85	60.2388
0.844	60.8709
0.838	61.5091
0.832	62.2128
0.826	62.7354
0.82	63.3197
0.814	63.9212
0.808	64.4207
0.802	64.8552
0.796	65.2678
0.79	65.5937
0.784	65.8723
0.778	66.1264
0.772	66.2629
0.766	66.3756
0.76	66.4451
0.754	66.4834
0.748	66.4315
0.742	66.3318
0.736	66.1962
0.73	66.0823
0.724	65.9072
0.718	65.6711
0.712	65.4676
0.706	65.2056
0.7	64.9467
0.694	64.664
0.688	64.3724
0.682	64.0781
0.676	63.7946
0.67	63.5116
0.664	63.2315
0.658	63.0031
0.652	62.7854
0.646	62.5688
0.64	62.3974
0.634	62.1934
0.628	62.0182
0.622	61.8406
0.616	61.6594
0.61	61.4824
0.604	61.2947
0.598	61.1256
0.592	60.9847
0.586	60.803
0.58	60.6303
0.574	60.4725
0.568	60.2951
0.562	60.0972
0.556	59.8572
0.55	59.6214
0.544	59.3779
0.538	59.0943
0.532	58.8284
0.526	58.5161
0.52	58.1725
0.514	57.8144
0.508	57.4557
0.502	57.0557
0.496	56.6113
0.49	56.2478
0.484	55.9839
0.478	55.8022
0.472	55.6292
0.466	55.4884
0.46	55.2971
0.454	55.0562
0.448	54.6933
0.442	54.1174
0.436	53.4971
0.43	52.8015
0.424	51.9814
0.418	51.2429
0.412	50.6502
0.406	50.012
0.4	49.2635
