Name: Natrojarosite NaFe_3^3+(SO_4)_2(OH)_6
Type: Mineral
Class: Sulfates
Particle Size: 125-500um
Sample No.: SO-7C
Owner: JPL
Origin: USA, Utah, Tooele County, Gold Hill.
Measurement: Hemispherical reflectance
X Units: Wavelength (micrometers)
Y Units: Reflectance (percent)
wavelength	value
2.5	40.3041
2.494	41.2568
2.488	42.4557
2.482	42.7626
2.476	42.7174
2.47	42.477
2.464	42.3642
2.458	42.4804
2.452	43.1294
2.446	44.1964
2.44	45.234
2.434	45.8217
2.428	46.2812
2.422	46.3299
2.416	46.3927
2.41	46.7239
2.404	47.4485
2.398	48.6445
2.392	50.2511
2.386	52.0688
2.38	53.8488
2.374	55.3929
2.368	56.7106
2.362	57.8533
2.356	58.8306
2.35	59.5058
2.344	59.9794
2.338	60.1067
2.332	59.997
2.326	59.5932
2.32	58.5837
2.314	57.1772
2.308	55.6
2.302	54.2119
2.296	53.1435
2.29	51.7744
2.284	49.7632
2.278	47.548
2.272	45.9292
2.266	45.3629
2.26	46.0932
2.254	48.0025
2.248	50.1923
2.242	51.7402
2.236	52.5245
2.23	52.9898
2.224	53.5362
2.218	54.3748
2.212	55.3919
2.206	56.2485
2.2	57.3224
2.194	58.1984
2.188	58.985
2.182	59.7521
2.176	60.388
2.17	60.9613
2.164	61.3709
2.158	61.7281
2.152	62.2641
2.146	62.6849
2.14	62.9883
2.134	63.3381
2.128	63.5868
2.122	63.6775
2.116	63.8395
2.11	63.8897
2.104	64.0388
2.098	64.2119
2.092	64.4753
2.086	64.7454
2.08	65.0112
2.074	65.2463
2.068	65.588
2.062	65.9605
2.056	66.2689
2.05	66.6307
2.044	67.0386
2.038	67.3862
2.032	67.9004
2.026	68.265
2.02	68.4519
2.014	68.6512
2.008	68.726
2.002	68.8062
1.996	69.0444
1.99	69.2858
1.984	69.496
1.978	69.6934
1.972	69.7312
1.966	69.887
1.96	70.0162
1.954	70.1922
1.948	70.3556
1.942	70.4776
1.936	70.7596
1.93	71.1177
1.924	71.6596
1.918	72.3084
1.912	72.8708
1.906	73.3737
1.9	73.8803
1.894	74.0972
1.888	74.0711
1.882	73.4238
1.876	72.2989
1.87	69.7008
1.864	67.1706
1.858	66.0064
1.852	65.0613
1.846	64.3169
1.84	66.1173
1.834	69.3793
1.828	72.0783
1.822	73.5554
1.816	74.3285
1.81	75.1611
1.804	75.8147
1.798	76.4022
1.792	76.5687
1.786	76.7782
1.78	77.0107
1.774	77.1946
1.768	77.328
1.762	77.6004
1.756	77.7806
1.75	77.9715
1.744	78.2451
1.738	78.4409
1.732	78.5878
1.726	78.6881
1.72	78.7936
1.714	78.7667
1.708	78.7013
1.702	78.7112
1.696	78.6607
1.69	78.494
1.684	78.4462
1.678	78.3604
1.672	78.2336
1.666	78.1118
1.66	78.018
1.654	77.9573
1.648	77.8514
1.642	77.8689
1.636	77.5742
1.63	77.4884
1.624	77.3757
1.618	77.1625
1.612	77.0001
1.606	76.8518
1.6	76.571
1.594	76.3468
1.588	75.9756
1.582	75.5312
1.576	75.1254
1.57	74.5534
1.564	74.1623
1.558	73.6881
1.552	73.2972
1.546	73.0681
1.54	72.9986
1.534	72.9374
1.528	73.0909
1.522	73.2333
1.516	73.3632
1.51	73.5546
1.504	73.4926
1.498	73.1451
1.492	72.2897
1.486	69.4501
1.48	66.2648
1.474	66.4884
1.468	68.8102
1.462	71.5011
1.456	73.5336
1.45	74.6727
1.444	75.3219
1.438	75.6063
1.432	75.7014
1.426	75.6299
1.42	75.6152
1.414	75.471
1.408	75.3027
1.402	74.8484
1.396	74.5061
1.39	74.0935
1.384	73.6988
1.378	73.2036
1.372	72.8946
1.366	72.4222
1.36	71.9565
1.354	71.3908
1.348	70.993
1.342	70.3971
1.336	69.9147
1.33	69.2677
1.324	68.8174
1.318	68.2257
1.312	67.6621
1.306	67.0864
1.3	66.5789
1.294	65.9922
1.288	65.423
1.282	64.842
1.276	64.3758
1.27	63.7886
1.264	63.1878
1.258	62.6697
1.252	62.092
1.246	61.6023
1.24	61.0439
1.234	60.5165
1.228	59.9157
1.222	59.4344
1.216	58.8909
1.21	58.3547
1.204	57.8143
1.198	57.3385
1.192	56.767
1.186	56.2493
1.18	55.7377
1.174	55.2797
1.168	54.7041
1.162	54.2708
1.156	53.7582
1.15	53.1726
1.144	52.7579
1.138	52.2303
1.132	51.7908
1.126	51.2343
1.12	50.6972
1.114	50.1779
1.108	49.7095
1.102	49.1081
1.096	48.6771
1.09	48.032
1.084	47.5657
1.078	47.0819
1.072	46.5453
1.066	45.8898
1.06	45.3917
1.054	44.69
1.048	44.1413
1.042	43.5602
1.036	43.0594
1.03	42.4746
1.024	41.8818
1.018	41.3508
1.012	40.8728
1.006	40.3196
1	39.8365
0.994	39.4662
0.988	39.0793
0.982	38.6622
0.976	38.2702
0.97	38.0409
0.964	37.7514
0.958	37.547
0.952	37.363
0.946	37.1964
0.94	37.1494
0.934	36.9933
0.928	36.9321
0.922	36.9118
0.916	36.9439
0.91	36.9648
0.904	37.055
0.898	37.2034
0.892	37.3584
0.886	37.5647
0.88	37.8223
0.874	38.0356
0.868	38.4079
0.862	38.7303
0.856	39.4641
0.85	39.9471
0.844	40.511
0.838	41.0606
0.832	41.6912
0.826	42.4191
0.82	43.139
0.814	43.9989
0.808	44.7846
0.802	45.7187
0.796	46.5758
0.79	47.4561
0.784	48.3941
0.778	49.2956
0.772	50.097
0.766	50.8529
0.76	51.5567
0.754	52.1026
0.748	52.5519
0.742	52.796
0.736	52.8833
0.73	52.8377
0.724	52.6143
0.718	52.2499
0.712	51.8052
0.706	51.2164
0.7	50.5802
0.694	49.9065
0.688	49.2155
0.682	48.5219
0.676	47.8371
0.67	47.1801
0.664	46.5836
0.658	46.0492
0.652	45.5601
0.646	45.1325
0.64	44.7473
0.634	44.4102
0.628	44.0734
0.622	43.7516
0.616	43.3931
0.61	43.0425
0.604	42.6621
0.598	42.2362
0.592	41.7381
0.586	41.0617
0.58	40.1639
0.574	39.0089
0.568	37.5485
0.562	35.8193
0.556	33.8371
0.55	31.7272
0.544	29.5185
0.538	27.3298
0.532	25.2712
0.526	23.4106
0.52	21.749
0.514	20.3092
0.508	19.0416
0.502	17.9165
0.496	16.9614
0.49	16.067
0.484	15.2636
0.478	14.5639
0.472	13.8842
0.466	13.2027
0.46	12.4265
0.454	11.3728
0.448	10.0091
0.442	8.56607
0.436	7.48609
0.43	7.5991
0.424	8.22877
0.418	8.34363
0.412	7.94759
0.406	6.97305
0.4	5.66969
