Name: Basalt
Type: Rock
Class: Igneous
Subclass: Mafic
Particle Size: Solid surface
Sample No.: Ward35.txt
Owner: JPL
Origin: Ward's Collection of American Rocks.  Sample locality - Chimney Rock, Somerset County, New Jersey.
Description: A greenish-black rock with aphanitic texture, and occasional
Measurement: Hemispherical reflectance
X Units: Wavelength (micrometers)
Y Units: Reflectance (percent)
wavelength	value
15.387	2.816
15.118	3.1288
14.858	3.3014
14.607	3.879
14.364	2.6787
14.129	2.8452
13.902	3.0338
13.682	3.0615
13.469	3.1367
13.262	3.3672
13.062	3.1622
12.867	3.2675
12.678	3.9065
12.495	4.0742
12.317	3.4427
12.144	4.4287
11.976	5.021
11.812	4.7495
11.653	5.5991
11.498	6.0867
11.347	6.5812
11.2	6.5055
11.056	6.7315
10.917	7.4055
10.781	7.8968
10.648	7.6216
10.518	8.5009
10.392	8.948
10.268	9.7715
10.148	10.7491
10.03	12.2805
9.915	13.3715
9.802	14.5442
9.693	15.175
9.585	14.5674
9.48	13.4961
9.377	11.5873
9.276	9.6211
9.178	8.2088
9.081	6.7029
8.987	6.0399
8.895	5.041
8.804	3.8955
8.715	3.7359
8.628	2.9547
8.543	3.1063
8.459	3.6338
8.377	2.9585
8.297	2.6431
8.218	2.6334
8.14	2.1315
8.065	2.1127
7.99	2.0054
7.917	1.8942
7.845	1.9318
7.774	1.955
7.705	2.137
7.637	1.9326
7.57	2.2863
7.504	2.0493
7.44	2.1474
7.376	2.2791
7.314	2.6409
7.252	2.4695
7.192	2.4789
7.133	2.6094
7.074	2.7161
7.017	2.745
6.96	2.7822
6.905	2.6629
6.85	2.879
6.796	2.8656
6.743	2.7399
6.691	2.9997
6.64	2.9299
6.589	2.8178
6.539	2.9656
6.49	2.9836
6.442	2.8297
6.394	2.7494
6.347	2.6344
6.301	2.5488
6.255	2.4637
6.21	2.3662
6.166	2.5459
6.122	2.3193
6.079	2.691
6.037	2.4841
5.995	2.2698
5.954	2.298
5.913	2.4098
5.873	2.5248
5.833	2.4335
5.794	2.6121
5.755	2.6408
5.717	2.747
5.68	2.6964
5.643	2.7963
5.606	3.0305
5.57	2.964
5.534	2.8097
5.499	2.9255
5.464	3.139
5.43	3.2948
5.396	2.9328
5.362	3.2404
5.329	3.3055
5.297	3.0599
5.264	3.1895
5.233	3.2418
5.201	3.4314
5.17	3.553
5.139	3.368
5.109	3.2749
5.079	3.5215
5.049	3.5081
5.02	3.5718
4.991	3.6086
4.962	3.3753
4.934	3.5262
4.906	3.5041
4.878	3.7142
4.851	3.6829
4.824	3.6677
4.797	3.5753
4.77	3.5454
4.744	3.7457
4.718	3.909
4.693	3.5518
4.667	3.8278
4.642	4.1711
4.617	3.6582
4.593	4.1765
4.569	3.8619
4.545	4.0703
4.521	3.939
4.497	4.0952
4.474	4.1074
4.451	4.0897
4.428	4.3308
4.406	4.2406
4.383	4.3868
4.361	4.2431
4.339	4.5285
4.318	4.3265
4.296	4.2845
4.275	4.1575
4.254	4.2459
4.233	4.2879
4.212	4.2624
4.192	4.1657
4.172	4.6241
4.152	4.4346
4.132	4.6935
4.112	4.7878
4.093	4.6476
4.073	4.9063
4.054	4.4188
4.035	4.3308
4.017	4.6639
3.998	4.4271
3.98	4.634
3.961	4.5803
3.943	4.563
3.925	4.7183
3.908	4.0668
3.89	4.8078
3.873	4.4773
3.855	4.7157
3.838	4.3923
3.821	4.6686
3.805	4.5284
3.788	4.6378
3.771	4.4711
3.755	4.5856
3.739	4.6674
3.723	4.0787
3.707	4.4195
3.691	4.2907
3.675	4.7546
3.66	4.2062
3.644	4.507
3.629	4.5696
3.614	4.5741
3.599	4.2642
3.584	4.1211
3.569	4.2472
3.554	4.358
3.54	4.4157
3.525	4.352
3.511	4.0898
3.497	4.0112
3.482	4.3473
3.469	4.7778
3.455	4.1194
3.441	3.7184
3.427	4.8612
3.414	4.2167
3.4	2.9182
3.387	4.1205
3.374	4.0837
3.361	3.5666
3.348	4.5059
3.335	4.1984
3.322	3.667
3.309	3.9291
3.297	4.1106
3.284	3.8201
3.272	3.4552
3.259	3.8189
3.247	3.9298
3.235	3.8959
3.223	3.8201
3.211	4.3736
3.199	3.9238
3.187	3.4201
3.175	3.9743
3.164	3.7419
3.152	3.9988
3.141	3.8352
3.129	2.9844
3.118	3.1152
3.107	3.3187
3.096	3.5831
3.085	2.9042
3.074	3.2879
3.063	2.8395
3.052	3.884
3.041	3.3341
3.031	2.9105
3.02	3.6164
3.01	3.1283
2.999	2.6799
2.989	2.7039
2.978	3.4577
2.968	3.3212
2.958	2.8681
2.948	3.0068
2.938	3.162
2.928	2.9053
2.918	2.4458
2.908	3.0933
2.898	3.7807
2.889	3.0289
2.879	2.9384
2.87	2.4243
2.86	4.0537
2.851	2.8772
2.841	3.7062
2.832	3.2769
2.823	2.5679
2.814	2.9046
2.805	3.0855
2.795	1.7605
2.786	3.0402
2.777	3.2462
2.769	3.1584
2.76	2.653
2.751	2.4462
2.742	3.0717
2.733	2.4049
2.725	3.1275
2.716	4.2267
2.708	4.2169
2.699	5.5668
2.691	5.2216
2.683	5.0607
2.674	4.6412
2.666	4.3567
2.658	4.871
2.65	5.0701
2.642	4.9218
2.634	5.3252
2.626	5.7296
2.618	4.9295
2.61	4.4966
2.602	4.1854
2.594	4.2886
2.586	5.4099
2.579	5.8355
2.571	4.2878
2.563	5.0161
2.556	4.6737
2.548	4.5216
2.541	6.3831
2.533	4.5665
2.526	4.4597
2.518	6.4021
2.511	4.7818
2.504	4.9921
2.497	4.3163
2.489	4.4768
2.482	5.0155
2.475	6.4508
2.468	5.3159
2.461	6.3197
2.454	4.654
2.447	4.6846
2.44	6.322
2.433	5.0966
2.426	6.0442
2.42	5.1761
2.413	5.0576
2.406	5.1761
2.4	4.8325
2.393	3.863
2.386	4.8191
2.38	5.329
2.373	4.7103
2.367	4.0949
2.36	3.6328
2.354	3.6604
2.347	4.832
2.341	4.3758
2.335	5.5558
2.329	4.9079
2.322	6.5623
2.316	3.7746
2.31	6.2376
2.304	4.8305
2.297	3.7385
2.291	5.1266
2.285	5.3481
2.279	4.3789
2.273	4.4065
2.267	4.6066
2.261	4.0958
2.256	5.6019
2.25	4.3672
2.244	3.9448
2.238	7.6561
2.232	6.5073
2.227	5.2791
2.221	5.3144
2.215	3.79
2.209	5.367
2.204	4.9253
2.198	5.568
2.193	4.9631
2.187	3.5999
2.182	5.9409
2.176	3.4818
2.171	1.3477
2.165	7.0405
2.16	4.5516
2.154	2.8112
2.149	1.9331
2.144	3.8959
2.138	5.1581
2.133	7.8342
2.128	5.3914
2.123	3.559
2.117	4.7305
2.112	6.2551
2.107	5.998
2.102	6.889
2.097	3.9522
2.092	4.5608
2.087	4.6366
2.082	3.7312
2.077	5.1654
2.072	7.6986
2.067	6.0819
2.062	5.3028
2.057	3.0824
2.052	6.3541
2.047	2.2104
2.042	3.4082
2.038	6.75
2.033	8.0545
2.028	6.6134
2.023	5.346
2.019	4.6083
2.014	7.8884
2.009	4.1945
2.004	4.2912
2	2.01
