Name: Bornite Cu_5FeS_4
Type: Mineral
Class: Sulfides
Particle Size: 45-125um
Sample No.: S-9A
Owner: JPL
Origin: USA, Arizona, Pinal County, Superior, Magma Mine.
Measurement: Hemispherical reflectance
X Units: Wavelength (micrometers)
Y Units: Reflectance (percent)
wavelength	value
2.5	13.5328
2.494	13.1983
2.488	13.2951
2.482	13.1826
2.476	13.332
2.47	13.1463
2.464	13.1894
2.458	13.2866
2.452	13.2619
2.446	13.2436
2.44	13.1903
2.434	13.2029
2.428	13.2469
2.422	13.2533
2.416	13.2456
2.41	13.2103
2.404	13.2958
2.398	13.2989
2.392	13.2049
2.386	13.2893
2.38	13.2959
2.374	13.2638
2.368	13.2639
2.362	13.2799
2.356	13.3008
2.35	13.3062
2.344	13.2614
2.338	13.2666
2.332	13.3093
2.326	13.2686
2.32	13.1877
2.314	13.1594
2.308	13.2194
2.302	13.2478
2.296	13.2023
2.29	13.195
2.284	13.1881
2.278	13.195
2.272	13.1923
2.266	13.178
2.26	13.1887
2.254	13.0671
2.248	13.1012
2.242	13.177
2.236	13.0965
2.23	13.1424
2.224	13.1565
2.218	13.1539
2.212	13.3485
2.206	13.1603
2.2	13.2363
2.194	13.2559
2.188	13.2254
2.182	13.2707
2.176	13.2633
2.17	13.2735
2.164	13.2823
2.158	13.3264
2.152	13.3362
2.146	13.3068
2.14	13.3567
2.134	13.2911
2.128	13.2068
2.122	13.2139
2.116	13.1557
2.11	13.0801
2.104	13.0737
2.098	13.0257
2.092	13.0914
2.086	13.0083
2.08	13.0371
2.074	13.0687
2.068	13.0495
2.062	13.0238
2.056	13.0465
2.05	13.0489
2.044	13.1041
2.038	13.1168
2.032	13.0591
2.026	13.1127
2.02	13.018
2.014	13.0578
2.008	12.9875
2.002	13.0709
1.996	13.0764
1.99	12.9994
1.984	12.9983
1.978	13.0384
1.972	13.0738
1.966	12.9338
1.96	13.0516
1.954	12.9629
1.948	12.9698
1.942	12.9387
1.936	13.0314
1.93	12.9532
1.924	12.962
1.918	13.0026
1.912	12.9887
1.906	12.9635
1.9	13.0638
1.894	12.954
1.888	13.0064
1.882	12.9636
1.876	12.9311
1.87	12.9394
1.864	12.9494
1.858	12.9137
1.852	12.9733
1.846	12.9285
1.84	12.9316
1.834	12.9288
1.828	12.891
1.822	12.8711
1.816	12.8355
1.81	12.8427
1.804	12.8805
1.798	12.8734
1.792	12.8585
1.786	12.8258
1.78	12.7789
1.774	12.7467
1.768	12.8159
1.762	12.8115
1.756	12.7946
1.75	12.7984
1.744	12.8028
1.738	12.7372
1.732	12.7613
1.726	12.7288
1.72	12.723
1.714	12.733
1.708	12.6972
1.702	12.7056
1.696	12.7009
1.69	12.6683
1.684	12.6465
1.678	12.6598
1.672	12.714
1.666	12.5826
1.66	12.6658
1.654	12.6658
1.648	12.6694
1.642	12.7129
1.636	12.6063
1.63	12.5462
1.624	12.6167
1.618	12.6419
1.612	12.5996
1.606	12.611
1.6	12.5084
1.594	12.5204
1.588	12.5866
1.582	12.503
1.576	12.5338
1.57	12.5494
1.564	12.553
1.558	12.5253
1.552	12.513
1.546	12.5002
1.54	12.4897
1.534	12.5022
1.528	12.4529
1.522	12.4729
1.516	12.4753
1.51	12.4691
1.504	12.4395
1.498	12.4394
1.492	12.4519
1.486	12.4033
1.48	12.4308
1.474	12.3598
1.468	12.3616
1.462	12.3458
1.456	12.3566
1.45	12.2866
1.444	12.3158
1.438	12.2971
1.432	12.2798
1.426	12.3328
1.42	12.284
1.414	12.2469
1.408	12.2488
1.402	12.2898
1.396	12.2718
1.39	12.2781
1.384	12.2496
1.378	12.3
1.372	12.1872
1.366	12.2269
1.36	12.1718
1.354	12.1567
1.348	12.0961
1.342	12.062
1.336	12.052
1.33	12.0623
1.324	12.0142
1.318	12.0593
1.312	12.01
1.306	12.0162
1.3	11.9719
1.294	12.0119
1.288	11.9416
1.282	11.9783
1.276	11.8626
1.27	11.8312
1.264	11.8129
1.258	11.8481
1.252	11.8549
1.246	11.7559
1.24	11.7366
1.234	11.743
1.228	11.6365
1.222	11.7406
1.216	11.6911
1.21	11.6301
1.204	11.6619
1.198	11.6207
1.192	11.604
1.186	11.5502
1.18	11.5614
1.174	11.5396
1.168	11.471
1.162	11.4057
1.156	11.3811
1.15	11.4217
1.144	11.3171
1.138	11.2795
1.132	11.3262
1.126	11.2669
1.12	11.2131
1.114	11.1798
1.108	11.1888
1.102	11.1494
1.096	11.2051
1.09	11.112
1.084	11.1076
1.078	11.1376
1.072	11.018
1.066	11.0149
1.06	11.0097
1.054	10.9772
1.048	10.8353
1.042	10.7883
1.036	10.8731
1.03	10.7827
1.024	10.7925
1.018	10.71
1.012	10.6767
1.006	10.6528
1	10.6229
0.994	10.6181
0.988	10.5623
0.982	10.4462
0.976	10.4575
0.97	10.4566
0.964	10.3531
0.958	10.3428
0.952	10.2839
0.946	10.1724
0.94	10.2128
0.934	10.135
0.928	10.0845
0.922	10.0399
0.916	10.0224
0.91	9.97386
0.904	9.91342
0.898	9.819
0.892	9.75483
0.886	9.71509
0.88	9.6926
0.874	9.56406
0.868	9.56358
0.862	9.44654
0.856	9.67385
0.85	9.61487
0.844	9.5245
0.838	9.42637
0.832	9.35315
0.826	9.26006
0.82	9.16279
0.814	9.07131
0.808	8.96979
0.802	8.87022
0.796	8.76936
0.79	8.65672
0.784	8.56345
0.778	8.4429
0.772	8.34441
0.766	8.23847
0.76	8.12561
0.754	8.02535
0.748	7.91927
0.742	7.81277
0.736	7.70205
0.73	7.59413
0.724	7.4918
0.718	7.3858
0.712	7.28129
0.706	7.17653
0.7	7.07496
0.694	6.97615
0.688	6.87513
0.682	6.78045
0.676	6.68501
0.67	6.59551
0.664	6.50842
0.658	6.42055
0.652	6.34396
0.646	6.26497
0.64	6.19728
0.634	6.13155
0.628	6.07273
0.622	6.02138
0.616	5.97737
0.61	5.93629
0.604	5.89593
0.598	5.87159
0.592	5.85238
0.586	5.83713
0.58	5.82509
0.574	5.82546
0.568	5.82955
0.562	5.84224
0.556	5.87558
0.55	5.90438
0.544	5.94602
0.538	5.99724
0.532	6.05
0.526	6.112
0.52	6.17928
0.514	6.24971
0.508	6.33335
0.502	6.4092
0.496	6.50137
0.49	6.59014
0.484	6.68546
0.478	6.7541
0.472	6.83778
0.466	6.93046
0.46	7.03178
0.454	7.14932
0.448	7.27841
0.442	7.42475
0.436	7.5692
0.43	7.72715
0.424	7.88958
0.418	8.05743
0.412	8.22319
0.406	8.38675
0.4	8.54676
