Name: Calcite CaCO_3
Type: Mineral
Class: Carbonates
Particle Size: 125-500um
Sample No.: C-3E
Owner: JPL
Wavelength Range: VNIR-SWIR
Measurement: Hemispherical reflectance
X Units: Wavelength (micrometers)
Y Units: Reflectance (percent)
wavelength	value
0.4	63.89
0.403	65.38
0.406	66.63
0.409	67.09
0.412	68.52
0.415	69.15
0.418	70.29
0.421	70.69
0.424	71.66
0.427	72.18
0.43	73.04
0.433	73.73
0.436	74.19
0.439	74.81
0.442	75.27
0.445	76.01
0.448	76.13
0.451	76.93
0.454	76.94
0.457	77.62
0.46	77.81
0.463	77.98
0.466	78.79
0.469	78.56
0.472	79.19
0.475	79.2
0.478	79.38
0.481	79.73
0.484	79.73
0.487	80.07
0.49	79.97
0.493	80.5
0.496	80.21
0.499	80.67
0.502	80.67
0.505	80.9
0.508	80.9
0.511	81.01
0.514	81.19
0.517	81.01
0.52	81.59
0.523	81.13
0.526	81.53
0.529	81.42
0.532	81.82
0.535	81.59
0.538	81.99
0.541	82.04
0.544	81.94
0.547	82.27
0.55	82.21
0.553	82.56
0.556	82.33
0.559	82.5
0.562	82.96
0.565	82.91
0.568	82.79
0.571	82.73
0.574	82.5
0.577	82.79
0.58	82.44
0.583	82.73
0.586	82.56
0.589	83.02
0.592	82.79
0.595	83.08
0.598	83.02
0.601	83.19
0.604	83.42
0.607	83.31
0.61	83.65
0.613	83.25
0.616	83.65
0.619	83.31
0.622	83.76
0.625	83.6
0.628	83.7
0.631	83.7
0.634	83.82
0.637	84.16
0.64	83.82
0.643	84.05
0.646	83.87
0.649	84.39
0.652	84.22
0.655	84.39
0.658	84.34
0.661	84.28
0.664	84.68
0.667	84.45
0.67	84.68
0.673	84.45
0.676	84.85
0.679	84.51
0.682	84.97
0.685	84.8
0.688	85.03
0.691	84.97
0.694	84.97
0.697	85.14
0.7	84.91
0.703	85.08
0.706	84.97
0.709	85.31
0.712	84.91
0.715	85.42
0.718	85.2
0.721	85.48
0.724	85.2
0.727	85.36
0.73	85.31
0.733	85.26
0.736	85.26
0.739	85.03
0.742	85.36
0.745	85.26
0.748	85.59
0.751	85.2
0.754	85.65
0.757	85.42
0.76	85.59
0.763	85.53
0.766	85.42
0.769	85.59
0.772	85.59
0.775	85.82
0.778	85.31
0.781	85.65
0.784	85.59
0.787	85.77
0.79	85.65
0.793	85.48
0.796	85.65
0.799	85.59
0.808	85.71
0.82	85.65
0.832	85.42
0.844	85.59
0.856	85.48
0.868	85.26
0.88	85.03
0.892	84.85
0.904	84.51
0.916	84.28
0.928	83.87
0.94	83.65
0.952	83.37
0.964	82.85
0.976	82.56
0.988	81.94
1	81.59
1.012	81.19
1.024	80.61
1.036	80.38
1.048	80.1
1.06	79.76
1.072	79.3
1.084	79.18
1.096	79.12
1.108	78.72
1.12	78.72
1.132	78.84
1.144	78.89
1.156	79.01
1.168	79.21
1.18	79.48
1.192	79.35
1.204	79.56
1.216	79.68
1.228	79.85
1.24	80.02
1.252	80.19
1.264	80.17
1.276	80.15
1.288	80.18
1.3	80.11
1.312	80.33
1.324	80.3
1.336	80.29
1.348	80.03
1.36	80.08
1.372	80.08
1.384	79.97
1.396	79.91
1.408	79.93
1.42	79.89
1.432	80.08
1.444	80.16
1.456	80.05
1.468	80.16
1.48	80.28
1.492	80.62
1.504	80.8
1.516	80.97
1.528	80.97
1.54	81.25
1.552	81.2
1.564	81.42
1.576	81.77
1.588	82.11
1.6	82.34
1.612	82.49
1.624	82.46
1.636	82.51
1.648	82.71
1.66	82.87
1.672	83.08
1.684	83.17
1.696	83.09
1.708	82.91
1.72	82.68
1.732	82.63
1.744	82.58
1.756	82.8
1.768	83.54
1.78	84.11
1.792	84.17
1.804	83.98
1.816	83.2
1.828	82.11
1.84	80.71
1.852	79.17
1.864	76.87
1.876	76.57
1.888	79.45
1.9	81.87
1.912	82.6
1.924	82.62
1.936	82.1
1.948	80.88
1.96	79.53
1.972	78
1.984	76.19
1.996	76.18
2.008	78.64
2.02	81.8
2.032	83.52
2.044	84.34
2.056	84.52
2.068	84.36
2.08	84.09
2.092	83.42
2.104	82.37
2.116	81.1
2.128	79.22
2.14	76.79
2.152	75.19
2.164	75.51
2.176	76.85
2.188	77.25
2.2	76.54
2.212	74.8
2.224	72.39
2.236	69.13
2.248	65.62
2.26	61.27
2.272	56.71
2.284	52.26
2.296	48.24
2.308	44.02
2.32	40.95
2.332	39.46
2.344	42.22
2.356	49.77
2.368	58.7
2.38	65.01
2.392	67.44
2.404	67.37
2.416	65.65
2.428	62.3
2.44	57.91
2.452	52.47
2.464	46.59
2.476	41.32
2.488	36.94
2.5	33.62
