Name: Sillimanite-Garnet Gneiss
Type: Rock
Class: Metamorphic
Subclass: Gneiss
Particle Size: Solid surface
Sample No.: Ward80.txt
Owner: JPL
Origin: Ward's Collection of American Rocks.  Sample locality - near Hague, Warren County, New York.  Collected by - JPL.
Description: A banded rock.  A compact, granular rock with poor gneissic
Measurement: Hemispherical reflectance
X Units: Wavelength (micrometers)
Y Units: Reflectance (percent)
wavelength	value
2.5	8.01314
2.494	7.83099
2.488	7.82965
2.482	7.82973
2.476	7.87249
2.47	7.7991
2.464	7.96504
2.458	7.90331
2.452	7.88702
2.446	7.7915
2.44	7.77251
2.434	7.8526
2.428	7.89411
2.422	7.89177
2.416	7.91008
2.41	7.98243
2.404	7.96458
2.398	7.97677
2.392	8.00074
2.386	8.00513
2.38	8.03488
2.374	7.99999
2.368	8.01276
2.362	7.98928
2.356	8.00951
2.35	8.05271
2.344	8.02468
2.338	8.06391
2.332	8.089
2.326	8.1172
2.32	8.16886
2.314	8.241
2.308	8.22028
2.302	8.30821
2.296	8.29974
2.29	8.35868
2.284	8.39594
2.278	8.37938
2.272	8.29402
2.266	8.34852
2.26	8.28145
2.254	8.35811
2.248	8.38841
2.242	8.38367
2.236	8.49359
2.23	8.37827
2.224	8.45562
2.218	8.37107
2.212	8.4569
2.206	8.25426
2.2	8.19674
2.194	8.16713
2.188	8.25876
2.182	8.41333
2.176	8.52372
2.17	8.60395
2.164	8.6388
2.158	8.59807
2.152	8.7071
2.146	8.77743
2.14	8.76548
2.134	8.75911
2.128	8.80078
2.122	8.71094
2.116	8.63946
2.11	8.60398
2.104	8.61663
2.098	8.57166
2.092	8.58217
2.086	8.56418
2.08	8.5869
2.074	8.57013
2.068	8.55807
2.062	8.51337
2.056	8.56125
2.05	8.5734
2.044	8.59677
2.038	8.55039
2.032	8.60774
2.026	8.58273
2.02	8.56598
2.014	8.55008
2.008	8.55116
2.002	8.59816
1.996	8.52455
1.99	8.46398
1.984	8.55826
1.978	8.50674
1.972	8.53194
1.966	8.61292
1.96	8.57858
1.954	8.57074
1.948	8.59544
1.942	8.64746
1.936	8.67286
1.93	8.69119
1.924	8.69603
1.918	8.71969
1.912	8.73531
1.906	8.63585
1.9	8.65518
1.894	8.61196
1.888	8.6542
1.882	8.59681
1.876	8.58578
1.87	8.66578
1.864	8.61154
1.858	8.54217
1.852	8.62344
1.846	8.54947
1.84	8.59984
1.834	8.51864
1.828	8.46116
1.822	8.52463
1.816	8.43797
1.81	8.47039
1.804	8.41784
1.798	8.48249
1.792	8.46093
1.786	8.42339
1.78	8.43152
1.774	8.41888
1.768	8.42819
1.762	8.41462
1.756	8.46462
1.75	8.41828
1.744	8.46233
1.738	8.49036
1.732	8.45371
1.726	8.52025
1.72	8.49906
1.714	8.51182
1.708	8.51764
1.702	8.50193
1.696	8.49752
1.69	8.49673
1.684	8.49121
1.678	8.51527
1.672	8.46432
1.666	8.51771
1.66	8.50367
1.654	8.47886
1.648	8.53067
1.642	8.54504
1.636	8.59111
1.63	8.48462
1.624	8.52402
1.618	8.46895
1.612	8.54546
1.606	8.56337
1.6	8.54776
1.594	8.56348
1.588	8.57757
1.582	8.60541
1.576	8.59809
1.57	8.62945
1.564	8.64986
1.558	8.66093
1.552	8.64742
1.546	8.65747
1.54	8.6608
1.534	8.69216
1.528	8.70244
1.522	8.69973
1.516	8.69098
1.51	8.68679
1.504	8.66424
1.498	8.71502
1.492	8.70045
1.486	8.63708
1.48	8.62693
1.474	8.62355
1.468	8.56153
1.462	8.60777
1.456	8.56904
1.45	8.52522
1.444	8.54779
1.438	8.49503
1.432	8.43312
1.426	8.44984
1.42	8.38878
1.414	8.21074
1.408	8.31429
1.402	8.31985
1.396	8.29456
1.39	8.31646
1.384	8.36942
1.378	8.36113
1.372	8.30121
1.366	8.34308
1.36	8.29636
1.354	8.33763
1.348	8.24978
1.342	8.28561
1.336	8.37797
1.33	8.25516
1.324	8.23632
1.318	8.27609
1.312	8.25733
1.306	8.33715
1.3	8.33757
1.294	8.3457
1.288	8.31019
1.282	8.37067
1.276	8.42212
1.27	8.41792
1.264	8.44318
1.258	8.40348
1.252	8.47712
1.246	8.51189
1.24	8.52862
1.234	8.56075
1.228	8.57082
1.222	8.58407
1.216	8.63727
1.21	8.71253
1.204	8.75963
1.198	8.71736
1.192	8.82083
1.186	8.92537
1.18	8.93381
1.174	9.01458
1.168	9.08086
1.162	9.14997
1.156	9.19453
1.15	9.32476
1.144	9.33515
1.138	9.42608
1.132	9.52626
1.126	9.56013
1.12	9.64793
1.114	9.82663
1.108	9.82929
1.102	9.95941
1.096	10.0243
1.09	10.1505
1.084	10.2487
1.078	10.3712
1.072	10.5008
1.066	10.6175
1.06	10.6686
1.054	10.7219
1.048	10.9156
1.042	10.967
1.036	11.0755
1.03	11.1053
1.024	11.1337
1.018	11.2613
1.012	11.3675
1.006	11.3717
1	11.4717
0.994	11.4158
0.988	11.56
0.982	11.5444
0.976	11.6156
0.97	11.6296
0.964	11.6254
0.958	11.704
0.952	11.6621
0.946	11.6253
0.94	11.6894
0.934	11.748
0.928	11.7213
0.922	11.6848
0.916	11.7406
0.91	11.6992
0.904	11.703
0.898	11.6788
0.892	11.6698
0.886	11.665
0.88	11.5766
0.874	11.5934
0.868	11.5963
0.862	11.5483
0.856	12.1521
0.85	12.184
0.844	12.1547
0.838	12.1772
0.832	12.1983
0.826	12.2224
0.82	12.2321
0.814	12.2545
0.808	12.2838
0.802	12.3095
0.796	12.3233
0.79	12.3488
0.784	12.3663
0.778	12.3867
0.772	12.3823
0.766	12.3911
0.76	12.3795
0.754	12.3713
0.748	12.3506
0.742	12.3248
0.736	12.2907
0.73	12.2657
0.724	12.2375
0.718	12.2076
0.712	12.1885
0.706	12.1621
0.7	12.1531
0.694	12.1516
0.688	12.1568
0.682	12.1763
0.676	12.1979
0.67	12.2151
0.664	12.2455
0.658	12.2591
0.652	12.2582
0.646	12.2459
0.64	12.2141
0.634	12.1596
0.628	12.0982
0.622	12.0438
0.616	12.0104
0.61	11.9988
0.604	11.986
0.598	11.9597
0.592	11.9025
0.586	11.8039
0.58	11.6967
0.574	11.6543
0.568	11.6837
0.562	11.7284
0.556	11.7784
0.55	11.774
0.544	11.7272
0.538	11.634
0.532	11.53
0.526	11.4517
0.52	11.4173
0.514	11.3837
0.508	11.2885
0.502	11.2561
0.496	11.3045
0.49	11.3722
0.484	11.4379
0.478	11.414
0.472	11.3927
0.466	11.3617
0.46	11.3114
0.454	11.2864
0.448	11.237
0.442	11.1375
0.436	10.9949
0.43	10.8499
0.424	10.732
0.418	10.645
0.412	10.532
0.406	10.4147
0.4	10.2844
