Name: Fayalite Fe_2SiO_4
Type: Mineral
Class: Silicates
Subclass: Nesosilicates
Particle Size: 45-125um
Sample No.: NS-1A
Owner: JPL
Origin: None.
Measurement: Hemispherical reflectance
X Units: Wavelength (micrometers)
Y Units: Reflectance (percent)
wavelength	value
2.5	10.8154
2.494	10.7135
2.488	10.8596
2.482	10.8972
2.476	10.8733
2.47	10.9861
2.464	10.9449
2.458	11.0657
2.452	10.9533
2.446	11.0632
2.44	11.0567
2.434	11.0423
2.428	11.0567
2.422	11.0908
2.416	11.1554
2.41	11.238
2.404	11.2955
2.398	11.3661
2.392	11.4254
2.386	11.4184
2.38	11.568
2.374	11.5838
2.368	11.5927
2.362	11.5347
2.356	11.5182
2.35	11.5119
2.344	11.5128
2.338	11.6154
2.332	11.648
2.326	11.7111
2.32	11.7129
2.314	11.8434
2.308	11.9183
2.302	12.0223
2.296	12.0387
2.29	12.0473
2.284	12.1208
2.278	12.1162
2.272	12.1735
2.266	12.3178
2.26	12.398
2.254	12.479
2.248	12.4827
2.242	12.5054
2.236	12.5564
2.23	12.6007
2.224	12.6435
2.218	12.8021
2.212	12.9036
2.206	12.8358
2.2	12.8757
2.194	12.9192
2.188	12.9408
2.182	13.0013
2.176	12.9856
2.17	13.1068
2.164	13.1543
2.158	13.0837
2.152	13.162
2.146	13.2007
2.14	13.2532
2.134	13.1787
2.128	13.2123
2.122	13.1805
2.116	13.1521
2.11	13.0842
2.104	13.0851
2.098	13.0743
2.092	13.1493
2.086	13.1705
2.08	13.1372
2.074	13.1508
2.068	13.1655
2.062	13.215
2.056	13.2543
2.05	13.2462
2.044	13.2504
2.038	13.2114
2.032	13.2687
2.026	13.2375
2.02	13.3029
2.014	13.2455
2.008	13.28
2.002	13.2402
1.996	13.234
1.99	13.1982
1.984	13.2144
1.978	13.2548
1.972	13.169
1.966	13.1722
1.96	13.1
1.954	13.2133
1.948	13.1539
1.942	13.0864
1.936	13.0794
1.93	13.0773
1.924	13.0905
1.918	13.1618
1.912	13.1527
1.906	13.1343
1.9	13.0881
1.894	13.2294
1.888	13.2588
1.882	13.3039
1.876	13.2377
1.87	13.2019
1.864	13.2512
1.858	13.2288
1.852	13.2085
1.846	13.1584
1.84	13.1687
1.834	13.1168
1.828	13.1117
1.822	13.0948
1.816	13.0788
1.81	13.0566
1.804	12.9906
1.798	12.9808
1.792	12.9503
1.786	12.9075
1.78	12.8325
1.774	12.8324
1.768	12.7868
1.762	12.7401
1.756	12.6504
1.75	12.6414
1.744	12.5416
1.738	12.5783
1.732	12.5131
1.726	12.4815
1.72	12.3593
1.714	12.304
1.708	12.2211
1.702	12.1704
1.696	12.0666
1.69	12.0121
1.684	11.9199
1.678	11.9149
1.672	11.8698
1.666	11.8099
1.66	11.6336
1.654	11.6529
1.648	11.4821
1.642	11.4593
1.636	11.2723
1.63	11.2703
1.624	11.1482
1.618	11.0109
1.612	10.9827
1.606	10.8211
1.6	10.7364
1.594	10.6448
1.588	10.5378
1.582	10.4673
1.576	10.3042
1.57	10.3202
1.564	10.1538
1.558	10.0533
1.552	9.98645
1.546	9.85149
1.54	9.77463
1.534	9.65504
1.528	9.58403
1.522	9.46994
1.516	9.37262
1.51	9.34337
1.504	9.15349
1.498	9.15353
1.492	9.05514
1.486	8.90171
1.48	8.83311
1.474	8.81206
1.468	8.66882
1.462	8.54316
1.456	8.51354
1.45	8.47117
1.444	8.27893
1.438	8.28486
1.432	8.12621
1.426	8.16445
1.42	7.93677
1.414	7.49087
1.408	7.88174
1.402	7.79269
1.396	7.73384
1.39	7.81043
1.384	7.67227
1.378	7.63767
1.372	7.41889
1.366	7.49309
1.36	7.44449
1.354	7.39855
1.348	7.38061
1.342	7.25243
1.336	7.16319
1.33	7.09939
1.324	7.15874
1.318	7.09026
1.312	6.99211
1.306	6.89324
1.3	6.83141
1.294	6.85489
1.288	6.71025
1.282	6.65294
1.276	6.61264
1.27	6.59495
1.264	6.61839
1.258	6.53586
1.252	6.47617
1.246	6.48365
1.24	6.38057
1.234	6.35259
1.228	6.31175
1.222	6.30077
1.216	6.23355
1.21	6.20952
1.204	6.17556
1.198	6.09575
1.192	6.07494
1.186	6.0589
1.18	6.06533
1.174	5.96055
1.168	5.87784
1.162	5.87384
1.156	5.79155
1.15	5.80858
1.144	5.67725
1.138	5.58878
1.132	5.49574
1.126	5.42894
1.12	5.34441
1.114	5.23466
1.108	5.20422
1.102	5.03989
1.096	5.00091
1.09	4.85462
1.084	4.7389
1.078	4.70455
1.072	4.56658
1.066	4.48894
1.06	4.436
1.054	4.36417
1.048	4.34135
1.042	4.33864
1.036	4.25648
1.03	4.24699
1.024	4.27103
1.018	4.18523
1.012	4.23339
1.006	4.30442
1	4.23005
0.994	4.31134
0.988	4.33077
0.982	4.27705
0.976	4.33251
0.97	4.33463
0.964	4.34945
0.958	4.44255
0.952	4.46168
0.946	4.48915
0.94	4.54476
0.934	4.5673
0.928	4.71124
0.922	4.72037
0.916	4.87245
0.91	4.93842
0.904	5.0549
0.898	5.0944
0.892	5.25403
0.886	5.38666
0.88	5.52997
0.874	5.65333
0.868	5.72758
0.862	5.90496
0.856	6.40207
0.85	6.55304
0.844	6.69708
0.838	6.84837
0.832	6.99126
0.826	7.1272
0.82	7.25742
0.814	7.39125
0.808	7.51995
0.802	7.63937
0.796	7.75755
0.79	7.86067
0.784	7.96106
0.778	8.05832
0.772	8.13668
0.766	8.21168
0.76	8.27786
0.754	8.33748
0.748	8.38663
0.742	8.43262
0.736	8.46634
0.73	8.49433
0.724	8.51483
0.718	8.53933
0.712	8.55883
0.706	8.57
0.7	8.59288
0.694	8.60035
0.688	8.61071
0.682	8.61752
0.676	8.62308
0.67	8.62654
0.664	8.62542
0.658	8.62792
0.652	8.62275
0.646	8.61038
0.64	8.59032
0.634	8.56952
0.628	8.55189
0.622	8.54389
0.616	8.54157
0.61	8.54786
0.604	8.55912
0.598	8.56188
0.592	8.55419
0.586	8.53077
0.58	8.48564
0.574	8.42163
0.568	8.30721
0.562	8.11012
0.556	7.83954
0.55	7.79056
0.544	7.7575
0.538	7.61674
0.532	7.40312
0.526	7.17788
0.52	6.92657
0.514	6.62598
0.508	6.58808
0.502	6.5367
0.496	6.3899
0.49	6.2198
0.484	6.10616
0.478	5.99521
0.472	5.93888
0.466	5.89156
0.46	5.81667
0.454	5.74864
0.448	5.69175
0.442	5.6248
0.436	5.56037
0.43	5.47831
0.424	5.38661
0.418	5.30119
0.412	5.21448
0.406	5.12005
0.4	5.02679
