Name: Tincalconite Na_2B_4O_5(OH)_4.3H_2O
Type: Mineral
Class: Borates
Particle Size: 125-500um
Sample No.: B-4A
Owner: JPL
Wavelength Range: VNIR-SWIR
Origin: USA, California, Kern County, Boron
Measurement: Hemispherical reflectance
X Units: Wavelength (micrometers)
Y Units: Reflectance (percent)
wavelength	value
0.4	83.03
0.403	83.15
0.406	83.62
0.409	84.09
0.412	84.21
0.415	84.66
0.418	84.96
0.421	85.13
0.424	85.37
0.427	85.55
0.43	85.78
0.433	86
0.436	85.89
0.439	86.71
0.442	86.36
0.445	87
0.448	87
0.451	87.06
0.454	87.59
0.457	87.59
0.46	87.72
0.463	87.73
0.466	87.9
0.469	88.08
0.472	87.8
0.475	88.26
0.478	88.27
0.481	88.51
0.484	88.7
0.487	88.64
0.49	89.22
0.493	89
0.496	89.47
0.499	89.48
0.502	89.3
0.505	89.65
0.508	89.65
0.511	89.95
0.514	90.07
0.517	89.71
0.52	90.18
0.523	89.95
0.526	90.12
0.529	90.64
0.532	89.95
0.535	90.76
0.538	90.76
0.541	90.64
0.544	90.94
0.547	90.64
0.55	90.88
0.553	90.88
0.556	90.64
0.559	90.76
0.562	91.11
0.565	91.46
0.568	91.17
0.571	91.76
0.574	91.17
0.577	91.11
0.58	91.46
0.583	91.23
0.586	91.35
0.589	91.23
0.592	91.17
0.595	91.58
0.598	91.35
0.601	91.41
0.604	91.93
0.607	91.82
0.61	92.39
0.613	92.04
0.616	92.45
0.619	92.1
0.622	92.22
0.625	92.45
0.628	92.1
0.631	92.1
0.634	92.04
0.637	92.22
0.64	92.45
0.643	91.98
0.646	92.45
0.649	92.51
0.652	92.28
0.655	92.51
0.658	92.45
0.661	92.51
0.664	92.63
0.667	92.33
0.67	92.63
0.673	92.39
0.676	92.63
0.679	92.33
0.682	92.57
0.685	92.74
0.688	92.28
0.691	92.74
0.694	92.51
0.697	92.92
0.7	92.57
0.703	92.92
0.706	92.45
0.709	92.51
0.712	92.74
0.715	92.28
0.718	92.51
0.721	92.28
0.724	92.33
0.727	92.28
0.73	92.22
0.733	92.33
0.736	91.93
0.739	92.16
0.742	91.93
0.745	92.22
0.748	91.82
0.751	91.93
0.754	91.87
0.757	91.58
0.76	92.16
0.763	91.76
0.766	91.82
0.769	91.87
0.772	91.98
0.775	92.22
0.778	91.82
0.781	92.33
0.784	91.98
0.787	91.98
0.79	92.04
0.793	91.87
0.796	92.22
0.799	91.35
0.808	91.35
0.82	91.23
0.832	91.11
0.844	90.88
0.856	90.94
0.868	90.82
0.88	90.88
0.892	90.76
0.904	90.64
0.916	90.52
0.928	90.12
0.94	89.71
0.952	88.66
0.964	86.97
0.976	85.51
0.988	85.68
1	86.04
1.012	86.8
1.024	87.61
1.036	88.2
1.048	88.89
1.06	89.01
1.072	89.07
1.084	88.95
1.096	88.72
1.108	88.08
1.12	87.79
1.132	87.14
1.144	85.05
1.156	80.66
1.168	78.95
1.18	78.7
1.192	78.8
1.204	78.61
1.216	78.61
1.228	78.55
1.24	78.49
1.252	78.32
1.264	78.35
1.276	78.4
1.288	78.37
1.3	78.3
1.312	77.05
1.324	75
1.336	72.48
1.348	70.42
1.36	68.97
1.372	67.58
1.384	64.9
1.396	59.2
1.408	50.31
1.42	41.83
1.432	40.32
1.444	40.04
1.456	39.11
1.468	38.36
1.48	38.01
1.492	39.76
1.504	42.38
1.516	43.72
1.528	44.18
1.54	44.12
1.552	44.01
1.564	44.12
1.576	44.29
1.588	44.41
1.6	44.29
1.612	44.06
1.624	43.52
1.636	42.98
1.648	42.34
1.66	41.8
1.672	41.33
1.684	41.03
1.696	40.61
1.708	40.31
1.72	40.03
1.732	39.79
1.744	39.5
1.756	38.87
1.768	38.05
1.78	37.47
1.792	37.23
1.804	36.99
1.816	36.84
1.828	36.63
1.84	36.25
1.852	35.23
1.864	33.6
1.876	30.35
1.888	25.55
1.9	20
1.912	15.88
1.924	14.44
1.936	14.5
1.948	15.41
1.96	16.32
1.972	17.01
1.984	17.69
1.996	18.37
2.008	19.08
2.02	19.74
2.032	20.27
2.044	20.58
2.056	20.99
2.068	21.2
2.08	21.34
2.092	21.31
2.104	21.4
2.116	21.26
2.128	20.71
2.14	20.2
2.152	19.99
2.164	20.62
2.176	21.55
2.188	22.24
2.2	22.35
2.212	22.07
2.224	21.75
2.236	21.5
2.248	21.15
2.26	21.01
2.272	20.95
2.284	21.16
2.296	21.24
2.308	21.14
2.32	21.28
2.332	21.06
2.344	20.63
2.356	19.97
2.368	19.16
2.38	17.91
2.392	16.59
2.404	15.35
2.416	14.17
2.428	13.26
2.44	12.63
2.452	12.12
2.464	11.78
2.476	11.05
2.488	10.48
2.5	9.91
