Name: Rutile TiO_2
Type: Mineral
Class: Oxides
Particle Size: 125-500um
Sample No.: O-2A
Owner: JPL
Origin: Unknown.
Measurement: Hemispherical reflectance
X Units: Wavelength (micrometers)
Y Units: Reflectance (percent)
wavelength	value
2.5	24.653
2.494	24.4656
2.488	24.4243
2.482	24.544
2.476	24.3961
2.47	24.4625
2.464	24.2931
2.458	24.4233
2.452	24.3938
2.446	24.388
2.44	24.4515
2.434	24.4459
2.428	24.514
2.422	24.5408
2.416	24.4862
2.41	24.4588
2.404	24.4202
2.398	24.3876
2.392	24.3389
2.386	24.3151
2.38	24.2661
2.374	24.3736
2.368	24.3566
2.362	24.2841
2.356	24.4038
2.35	24.2953
2.344	24.2504
2.338	24.2033
2.332	24.1108
2.326	23.9397
2.32	23.8122
2.314	23.4825
2.308	23.4019
2.302	23.3475
2.296	23.2941
2.29	23.2753
2.284	23.4635
2.278	23.5646
2.272	23.547
2.266	23.5913
2.26	23.5736
2.254	23.5259
2.248	23.5626
2.242	23.4661
2.236	23.4073
2.23	23.3701
2.224	23.3511
2.218	23.2673
2.212	23.5047
2.206	23.3327
2.2	23.3334
2.194	23.2923
2.188	23.2725
2.182	23.2562
2.176	23.2096
2.17	23.219
2.164	23.3069
2.158	23.2251
2.152	23.2105
2.146	23.1457
2.14	23.0804
2.134	23.081
2.128	22.9336
2.122	22.8135
2.116	22.6959
2.11	22.57
2.104	22.5138
2.098	22.2756
2.092	22.3356
2.086	22.2631
2.08	22.2204
2.074	22.1859
2.068	22.1525
2.062	22.1305
2.056	22.0476
2.05	22.0362
2.044	22.028
2.038	21.9475
2.032	21.9275
2.026	21.8915
2.02	21.8373
2.014	21.8147
2.008	21.7082
2.002	21.6546
1.996	21.6381
1.99	21.5954
1.984	21.5762
1.978	21.4955
1.972	21.3825
1.966	21.4454
1.96	21.3371
1.954	21.3336
1.948	21.2415
1.942	21.2971
1.936	21.2049
1.93	21.2618
1.924	21.2009
1.918	21.1792
1.912	21.0786
1.906	21.0221
1.9	21.0287
1.894	20.9699
1.888	20.9037
1.882	20.8937
1.876	20.7889
1.87	20.8349
1.864	20.74
1.858	20.6109
1.852	20.618
1.846	20.6133
1.84	20.6258
1.834	20.4733
1.828	20.5005
1.822	20.396
1.816	20.3921
1.81	20.2976
1.804	20.3001
1.798	20.2633
1.792	20.1507
1.786	20.1425
1.78	20.0983
1.774	20.0992
1.768	19.9951
1.762	19.9868
1.756	19.8658
1.75	19.9097
1.744	19.8576
1.738	19.8154
1.732	19.7848
1.726	19.7437
1.72	19.725
1.714	19.6218
1.708	19.6377
1.702	19.5826
1.696	19.5456
1.69	19.4904
1.684	19.4026
1.678	19.4425
1.672	19.3866
1.666	19.3305
1.66	19.2797
1.654	19.3414
1.648	19.2756
1.642	19.2687
1.636	19.196
1.63	19.1973
1.624	19.134
1.618	19.0881
1.612	19.1742
1.606	19.0765
1.6	19.0425
1.594	19.0293
1.588	18.9647
1.582	18.9995
1.576	18.9865
1.57	18.9426
1.564	18.8913
1.558	18.8628
1.552	18.8907
1.546	18.865
1.54	18.7713
1.534	18.7528
1.528	18.7856
1.522	18.8087
1.516	18.724
1.51	18.7589
1.504	18.7124
1.498	18.6966
1.492	18.6644
1.486	18.6792
1.48	18.6851
1.474	18.6822
1.468	18.6108
1.462	18.596
1.456	18.6168
1.45	18.5629
1.444	18.5734
1.438	18.5315
1.432	18.5599
1.426	18.5018
1.42	18.4445
1.414	18.4343
1.408	18.4021
1.402	18.3751
1.396	18.3236
1.39	18.3654
1.384	18.4494
1.378	18.3893
1.372	18.3378
1.366	18.3522
1.36	18.402
1.354	18.3563
1.348	18.3721
1.342	18.3319
1.336	18.3632
1.33	18.2865
1.324	18.2549
1.318	18.2745
1.312	18.3244
1.306	18.2564
1.3	18.2593
1.294	18.2581
1.288	18.3046
1.282	18.2292
1.276	18.2821
1.27	18.2819
1.264	18.2541
1.258	18.2459
1.252	18.2465
1.246	18.2395
1.24	18.2852
1.234	18.3555
1.228	18.353
1.222	18.3266
1.216	18.3846
1.21	18.4158
1.204	18.4586
1.198	18.429
1.192	18.47
1.186	18.4968
1.18	18.4832
1.174	18.5665
1.168	18.6107
1.162	18.6031
1.156	18.6858
1.15	18.731
1.144	18.7157
1.138	18.7702
1.132	18.823
1.126	18.8768
1.12	18.9034
1.114	18.8871
1.108	18.9689
1.102	18.9799
1.096	19.1231
1.09	19.024
1.084	19.0559
1.078	19.1881
1.072	19.2021
1.066	19.2237
1.06	19.1987
1.054	19.2372
1.048	19.2163
1.042	19.2333
1.036	19.224
1.03	19.2689
1.024	19.1985
1.018	19.2311
1.012	19.2719
1.006	19.1846
1	19.1349
0.994	19.1193
0.988	19.1461
0.982	19.0491
0.976	19.016
0.97	18.9618
0.964	18.8889
0.958	18.8317
0.952	18.6899
0.946	18.5758
0.94	18.4772
0.934	18.407
0.928	18.3304
0.922	18.2031
0.916	18.0403
0.91	17.9552
0.904	17.7963
0.898	17.6886
0.892	17.6283
0.886	17.4699
0.88	17.3704
0.874	17.2035
0.868	17.0767
0.862	16.9259
0.856	17.4567
0.85	17.3303
0.844	17.1609
0.838	16.9825
0.832	16.8343
0.826	16.6694
0.82	16.5054
0.814	16.3452
0.808	16.1776
0.802	16.0051
0.796	15.8067
0.79	15.6366
0.784	15.4403
0.778	15.2453
0.772	15.0667
0.766	14.8765
0.76	14.6914
0.754	14.5087
0.748	14.3347
0.742	14.1713
0.736	14.0225
0.73	13.8509
0.724	13.6847
0.718	13.5179
0.712	13.3641
0.706	13.2086
0.7	13.0537
0.694	12.9057
0.688	12.7478
0.682	12.5956
0.676	12.4481
0.67	12.3005
0.664	12.15
0.658	12.0041
0.652	11.8626
0.646	11.7155
0.64	11.575
0.634	11.4373
0.628	11.3062
0.622	11.178
0.616	11.0526
0.61	10.9382
0.604	10.8317
0.598	10.7296
0.592	10.6389
0.586	10.5466
0.58	10.4585
0.574	10.3758
0.568	10.2987
0.562	10.2353
0.556	10.166
0.55	10.1124
0.544	10.0712
0.538	10.0334
0.532	10.006
0.526	9.97958
0.52	9.96003
0.514	9.93792
0.508	9.91539
0.502	9.90498
0.496	9.9052
0.49	9.91676
0.484	9.94986
0.478	9.99825
0.472	10.0402
0.466	10.084
0.46	10.1266
0.454	10.1696
0.448	10.2331
0.442	10.2998
0.436	10.3875
0.43	10.4773
0.424	10.5776
0.418	10.6886
0.412	10.8232
0.406	10.9655
0.4	11.1161
