Name: Talc Mg_3Si_4O_10(OH)_2
Type: Mineral
Class: Silicates
Subclass: Phyllosilicates
Particle Size: 45-125um
Sample No.: PS-14A
Owner: JPL
Origin: USA, Georgia, Cherokee County, Holly Springs.
Measurement: Hemispherical reflectance
X Units: Wavelength (micrometers)
Y Units: Reflectance (percent)
wavelength	value
2.5	63.5582
2.494	63.7077
2.488	64.4112
2.482	64.6087
2.476	63.0641
2.47	60.0452
2.464	58.1055
2.458	58.0258
2.452	59.5893
2.446	61.1549
2.44	61.8513
2.434	61.9474
2.428	62.5008
2.422	63.7422
2.416	65.3274
2.41	65.6701
2.404	62.8472
2.398	57.825
2.392	52.8643
2.386	50.9413
2.38	52.4325
2.374	56.0216
2.368	60.3014
2.362	63.9545
2.356	66.5999
2.35	68.554
2.344	69.6556
2.338	68.5805
2.332	63.5077
2.326	55.0915
2.32	45.5396
2.314	38.5021
2.308	36.9762
2.302	40.725
2.296	44.3762
2.29	45.8569
2.284	49.08
2.278	56.3561
2.272	63.9308
2.266	69.1998
2.26	73.1381
2.254	76.3148
2.248	78.4218
2.242	78.9209
2.236	77.565
2.23	76.4516
2.224	78.2144
2.218	80.7867
2.212	81.9377
2.206	82.065
2.2	82.2559
2.194	82.0237
2.188	81.5489
2.182	80.7943
2.176	79.8541
2.17	79.8534
2.164	80.5914
2.158	81.1717
2.152	81.1892
2.146	80.4352
2.14	79.6784
2.134	79.1809
2.128	79.1324
2.122	79.7582
2.116	80.0696
2.11	80.3748
2.104	80.5806
2.098	80.0999
2.092	79.6597
2.086	79.0587
2.08	78.0975
2.074	79.0873
2.068	81.5795
2.062	82.8466
2.056	83.365
2.05	83.8874
2.044	84.2118
2.038	84.5699
2.032	84.8265
2.026	84.5331
2.02	83.9613
2.014	83.4943
2.008	83.8032
2.002	84.4829
1.996	84.7991
1.99	84.8414
1.984	85.1877
1.978	85.2753
1.972	85.3524
1.966	85.3546
1.96	85.3902
1.954	85.2455
1.948	85.283
1.942	85.4192
1.936	85.424
1.93	85.459
1.924	85.5478
1.918	85.6217
1.912	85.5938
1.906	85.7801
1.9	85.8306
1.894	86.1292
1.888	86.1886
1.882	86.2564
1.876	86.4303
1.87	86.5712
1.864	86.5601
1.858	86.7537
1.852	86.9098
1.846	86.8875
1.84	86.8569
1.834	86.7645
1.828	86.8103
1.822	86.9855
1.816	87.1779
1.81	87.3397
1.804	87.4991
1.798	87.5669
1.792	87.555
1.786	87.6013
1.78	87.5504
1.774	87.5373
1.768	87.5941
1.762	87.6562
1.756	87.7224
1.75	87.7017
1.744	87.6872
1.738	87.7865
1.732	87.7239
1.726	87.7625
1.72	87.7935
1.714	87.7232
1.708	87.8321
1.702	87.8092
1.696	87.8202
1.69	87.7915
1.684	87.7979
1.678	87.7966
1.672	87.7605
1.666	87.7301
1.66	87.7686
1.654	87.7636
1.648	87.8558
1.642	87.8248
1.636	87.8292
1.63	87.8669
1.624	87.816
1.618	87.9158
1.612	87.912
1.606	87.9876
1.6	87.8904
1.594	87.9351
1.588	87.9922
1.582	87.8863
1.576	87.8419
1.57	87.9654
1.564	87.927
1.558	87.8883
1.552	87.7867
1.546	87.6971
1.54	87.5862
1.534	87.5754
1.528	87.7097
1.522	87.735
1.516	87.8462
1.51	87.7124
1.504	87.7055
1.498	87.6627
1.492	87.7542
1.486	87.7363
1.48	87.6865
1.474	87.6802
1.468	87.6731
1.462	87.6084
1.456	87.6559
1.45	87.5384
1.444	87.6034
1.438	87.4958
1.432	87.4615
1.426	87.4429
1.42	87.52
1.414	87.4862
1.408	86.7024
1.402	84.1498
1.396	72.7222
1.39	67.9648
1.384	86.4994
1.378	87.3264
1.372	87.526
1.366	87.4709
1.36	87.1902
1.354	87.4144
1.348	87.4332
1.342	87.4097
1.336	87.2391
1.33	87.2069
1.324	87.0032
1.318	87.0432
1.312	87.0897
1.306	87.1079
1.3	86.4731
1.294	86.862
1.288	86.8935
1.282	86.3892
1.276	85.6549
1.27	86.3236
1.264	86.5981
1.258	86.5797
1.252	86.5188
1.246	86.463
1.24	86.2459
1.234	86.0937
1.228	85.9802
1.222	85.9084
1.216	85.7382
1.21	85.5982
1.204	85.4287
1.198	85.2858
1.192	85.0664
1.186	84.9443
1.18	84.6686
1.174	84.4872
1.168	84.2426
1.162	84.0433
1.156	83.9097
1.15	83.5052
1.144	83.3393
1.138	82.9987
1.132	82.7655
1.126	82.5467
1.12	82.1644
1.114	82.0568
1.108	81.6581
1.102	81.4886
1.096	81.2194
1.09	80.856
1.084	80.694
1.078	80.5633
1.072	80.2167
1.066	80.0727
1.06	79.8491
1.054	79.7412
1.048	79.5653
1.042	79.4449
1.036	79.4364
1.03	79.2019
1.024	79.2593
1.018	79.1299
1.012	79.1933
1.006	79.1093
1	79.1563
0.994	79.2317
0.988	79.272
0.982	79.2884
0.976	79.3797
0.97	79.402
0.964	79.495
0.958	79.5205
0.952	78.307
0.946	78.9437
0.94	79.6711
0.934	79.7334
0.928	79.7286
0.922	79.687
0.916	79.6534
0.91	79.6199
0.904	79.6177
0.898	79.5236
0.892	79.4406
0.886	79.3273
0.88	79.3053
0.874	79.2971
0.868	79.3093
0.862	79.2581
0.856	79.2326
0.85	79.2679
0.844	79.4875
0.838	79.6253
0.832	79.8748
0.826	80.1166
0.82	80.3949
0.814	80.7013
0.808	80.9989
0.802	81.392
0.796	81.7085
0.79	82.0478
0.784	82.3502
0.778	82.6581
0.772	82.913
0.766	83.2675
0.76	83.5133
0.754	83.7613
0.748	84.0078
0.742	84.2212
0.736	84.3578
0.73	84.4092
0.724	84.6953
0.718	84.8719
0.712	85.0196
0.706	85.1279
0.7	85.2029
0.694	85.2622
0.688	85.3268
0.682	85.3641
0.676	85.3732
0.67	85.4026
0.664	85.3761
0.658	85.4353
0.652	85.4852
0.646	85.5025
0.64	85.6122
0.634	85.7897
0.628	85.9981
0.622	86.1782
0.616	86.4084
0.61	86.6442
0.604	86.8485
0.598	87.0482
0.592	87.2676
0.586	87.3733
0.58	87.4926
0.574	87.548
0.568	87.597
0.562	87.6347
0.556	87.5731
0.55	87.5253
0.544	87.4514
0.538	87.3891
0.532	87.3023
0.526	87.1766
0.52	87.0892
0.514	86.9325
0.508	86.7696
0.502	86.539
0.496	86.2941
0.49	86.0745
0.484	85.7937
0.478	85.5982
0.472	85.4081
0.466	85.1661
0.46	84.9323
0.454	84.6726
0.448	84.4228
0.442	84.15
0.436	83.821
0.43	83.489
0.424	83.0065
0.418	82.4832
0.412	81.932
0.406	81.4516
0.4	80.9744
