Name: Cassiterite SnO_2
Type: Mineral
Class: Oxides
Particle Size: 125-500um
Sample No.: O-3A
Owner: JPL
Origin: USA, South Dakota, Lawrence County, Tinton.
Measurement: Hemispherical reflectance
X Units: Wavelength (micrometers)
Y Units: Reflectance (percent)
wavelength	value
2.5	3.90658
2.494	4.0268
2.488	4.06063
2.482	4.07837
2.476	3.89036
2.47	4.14341
2.464	4.05673
2.458	4.11629
2.452	4.19247
2.446	4.16465
2.44	4.1463
2.434	4.07521
2.428	4.16687
2.422	4.1004
2.416	4.1773
2.41	4.16259
2.404	4.11537
2.398	4.08809
2.392	4.05842
2.386	4.12982
2.38	4.08203
2.374	4.0723
2.368	4.1883
2.362	4.10303
2.356	4.08237
2.35	4.13772
2.344	4.16597
2.338	4.07762
2.332	4.12981
2.326	4.17866
2.32	4.13242
2.314	4.09792
2.308	4.10932
2.302	4.07139
2.296	4.11107
2.29	4.06302
2.284	4.11124
2.278	4.11435
2.272	4.10465
2.266	4.11245
2.26	4.12771
2.254	4.15901
2.248	4.10256
2.242	4.14629
2.236	4.1389
2.23	4.13973
2.224	4.1256
2.218	4.1866
2.212	4.1872
2.206	4.09828
2.2	4.17495
2.194	4.22875
2.188	4.13972
2.182	4.17676
2.176	4.21512
2.17	4.23915
2.164	4.23034
2.158	4.21329
2.152	4.17916
2.146	4.218
2.14	4.22171
2.134	4.22393
2.128	4.23131
2.122	4.21885
2.116	4.25649
2.11	4.16443
2.104	4.21173
2.098	4.19695
2.092	4.14826
2.086	4.16144
2.08	4.24739
2.074	4.24062
2.068	4.24709
2.062	4.29939
2.056	4.26436
2.05	4.28247
2.044	4.29651
2.038	4.24687
2.032	4.33484
2.026	4.3083
2.02	4.23832
2.014	4.25955
2.008	4.33047
2.002	4.34049
1.996	4.278
1.99	4.31279
1.984	4.29621
1.978	4.29931
1.972	4.32078
1.966	4.34535
1.96	4.28271
1.954	4.37299
1.948	4.28243
1.942	4.2782
1.936	4.27135
1.93	4.30677
1.924	4.28168
1.918	4.34847
1.912	4.35562
1.906	4.29479
1.9	4.26728
1.894	4.35342
1.888	4.3324
1.882	4.3472
1.876	4.38105
1.87	4.33456
1.864	4.34979
1.858	4.36015
1.852	4.35922
1.846	4.33453
1.84	4.36946
1.834	4.35452
1.828	4.35631
1.822	4.30641
1.816	4.33721
1.81	4.37941
1.804	4.39803
1.798	4.35755
1.792	4.4209
1.786	4.37159
1.78	4.38005
1.774	4.35921
1.768	4.35291
1.762	4.37536
1.756	4.32134
1.75	4.35543
1.744	4.42102
1.738	4.38563
1.732	4.37366
1.726	4.34562
1.72	4.35849
1.714	4.39897
1.708	4.35049
1.702	4.40947
1.696	4.39002
1.69	4.40684
1.684	4.36146
1.678	4.38435
1.672	4.46163
1.666	4.36582
1.66	4.41339
1.654	4.40679
1.648	4.43189
1.642	4.47636
1.636	4.41296
1.63	4.38547
1.624	4.4718
1.618	4.43313
1.612	4.44864
1.606	4.46887
1.6	4.49272
1.594	4.49614
1.588	4.50637
1.582	4.53379
1.576	4.52173
1.57	4.47745
1.564	4.50285
1.558	4.57749
1.552	4.5745
1.546	4.52855
1.54	4.53259
1.534	4.61118
1.528	4.56928
1.522	4.53111
1.516	4.56955
1.51	4.65116
1.504	4.62439
1.498	4.63029
1.492	4.64158
1.486	4.67077
1.48	4.65516
1.474	4.62659
1.468	4.64459
1.462	4.69893
1.456	4.70422
1.45	4.66051
1.444	4.71227
1.438	4.66865
1.432	4.71025
1.426	4.67628
1.42	4.76973
1.414	4.74878
1.408	4.80207
1.402	4.79462
1.396	4.86762
1.39	4.91347
1.384	4.96393
1.378	4.83638
1.372	4.85658
1.366	4.91072
1.36	4.93769
1.354	4.92434
1.348	4.89286
1.342	4.89476
1.336	4.90576
1.33	4.88695
1.324	4.88974
1.318	4.92866
1.312	4.93549
1.306	4.89624
1.3	4.87569
1.294	4.8844
1.288	4.92458
1.282	4.93804
1.276	4.88825
1.27	4.96124
1.264	4.92703
1.258	5.00389
1.252	4.93777
1.246	4.99364
1.24	4.96713
1.234	5.0399
1.228	5.00618
1.222	4.99809
1.216	5.02292
1.21	4.97519
1.204	4.99743
1.198	5.01064
1.192	5.01708
1.186	5.03445
1.18	5.04346
1.174	4.94152
1.168	5.02205
1.162	5.04089
1.156	5.0193
1.15	5.0111
1.144	5.08285
1.138	4.99313
1.132	5.09127
1.126	5.11725
1.12	5.03902
1.114	5.1267
1.108	5.11894
1.102	5.1206
1.096	5.15605
1.09	5.12605
1.084	5.15216
1.078	5.17155
1.072	5.1024
1.066	5.15011
1.06	5.23692
1.054	5.16139
1.048	5.16312
1.042	5.21493
1.036	5.2112
1.03	5.28124
1.024	5.21225
1.018	5.25579
1.012	5.24469
1.006	5.26253
1	5.24783
0.994	5.29254
0.988	5.29231
0.982	5.28916
0.976	5.23769
0.97	5.2814
0.964	5.23712
0.958	5.24262
0.952	5.23592
0.946	5.30231
0.94	5.29162
0.934	5.24235
0.928	5.24264
0.922	5.24731
0.916	5.29543
0.91	5.25431
0.904	5.20989
0.898	5.21462
0.892	5.25925
0.886	5.2019
0.88	5.17392
0.874	5.16704
0.868	5.23084
0.862	5.1978
0.856	5.43119
0.85	5.4422
0.844	5.44949
0.838	5.44636
0.832	5.44605
0.826	5.45026
0.82	5.45432
0.814	5.45614
0.808	5.45794
0.802	5.45809
0.796	5.46205
0.79	5.46024
0.784	5.45967
0.778	5.45714
0.772	5.45889
0.766	5.44854
0.76	5.45431
0.754	5.44245
0.748	5.44101
0.742	5.44109
0.736	5.43288
0.73	5.42929
0.724	5.42805
0.718	5.42224
0.712	5.41465
0.706	5.40909
0.7	5.4036
0.694	5.40079
0.688	5.39357
0.682	5.39314
0.676	5.38968
0.67	5.38539
0.664	5.38099
0.658	5.37572
0.652	5.37228
0.646	5.36735
0.64	5.36794
0.634	5.36482
0.628	5.36122
0.622	5.36076
0.616	5.35832
0.61	5.35577
0.604	5.35918
0.598	5.35592
0.592	5.36343
0.586	5.36223
0.58	5.36609
0.574	5.37015
0.568	5.3722
0.562	5.37746
0.556	5.38535
0.55	5.39306
0.544	5.39971
0.538	5.40932
0.532	5.41861
0.526	5.43029
0.52	5.44281
0.514	5.45317
0.508	5.46563
0.502	5.47929
0.496	5.5008
0.49	5.52172
0.484	5.54033
0.478	5.55631
0.472	5.57853
0.466	5.59381
0.46	5.62064
0.454	5.64606
0.448	5.67275
0.442	5.70428
0.436	5.73224
0.43	5.76811
0.424	5.80689
0.418	5.8481
0.412	5.8982
0.406	5.94829
0.4	6.00671
