Name: Barite BaSO_4
Type: Mineral
Class: Sulfates
Particle Size: 45-125um
Sample No.: SO-3A
Owner: JPL
Origin: USA, South Carolina, Cherokee County, Kings Creek.
Measurement: Hemispherical reflectance
X Units: Wavelength (micrometers)
Y Units: Reflectance (percent)
wavelength	value
2.5	87.0713
2.494	86.9222
2.488	87.1587
2.482	87.3503
2.476	87.349
2.47	87.5854
2.464	87.7112
2.458	87.8259
2.452	87.8707
2.446	88.1963
2.44	88.2776
2.434	88.394
2.428	88.5887
2.422	88.7392
2.416	88.8928
2.41	89.0265
2.404	89.3376
2.398	89.3727
2.392	89.5014
2.386	89.7168
2.38	89.9174
2.374	90.0722
2.368	90.2178
2.362	90.3553
2.356	90.4338
2.35	90.5662
2.344	90.7775
2.338	90.7201
2.332	90.7625
2.326	90.869
2.32	90.8717
2.314	90.8841
2.308	90.9387
2.302	90.9592
2.296	91.0136
2.29	91.0541
2.284	91.0757
2.278	91.0908
2.272	91.0147
2.266	91.1458
2.26	91.1147
2.254	91.1781
2.248	91.238
2.242	91.2113
2.236	91.2677
2.23	91.3465
2.224	91.4963
2.218	91.5968
2.212	91.621
2.206	91.9137
2.2	92.0126
2.194	92.018
2.188	92.0462
2.182	92.1544
2.176	92.3638
2.17	92.5119
2.164	92.6025
2.158	92.8504
2.152	92.8634
2.146	92.9149
2.14	92.894
2.134	92.7786
2.128	92.7104
2.122	92.293
2.116	92.0087
2.11	91.6834
2.104	91.4221
2.098	91.2882
2.092	91.2636
2.086	91.2774
2.08	91.2852
2.074	91.2863
2.068	91.3647
2.062	91.3222
2.056	91.4353
2.05	91.4909
2.044	91.4943
2.038	91.476
2.032	91.3417
2.026	91.3349
2.02	91.0638
2.014	90.8726
2.008	90.8679
2.002	90.8871
1.996	90.7605
1.99	90.5193
1.984	90.4486
1.978	90.0207
1.972	89.7947
1.966	89.6867
1.96	89.4568
1.954	89.389
1.948	89.3616
1.942	89.1206
1.936	89.1393
1.93	89.2303
1.924	89.2815
1.918	89.5744
1.912	89.751
1.906	90.1904
1.9	90.7026
1.894	91.2062
1.888	91.8642
1.882	92.2454
1.876	92.7188
1.87	93.0188
1.864	93.1051
1.858	93.2152
1.852	93.3152
1.846	93.3564
1.84	93.4296
1.834	93.4551
1.828	93.4349
1.822	93.4812
1.816	93.4474
1.81	93.4579
1.804	93.5063
1.798	93.5147
1.792	93.559
1.786	93.4862
1.78	93.4904
1.774	93.4576
1.768	93.4881
1.762	93.5007
1.756	93.5662
1.75	93.4511
1.744	93.5744
1.738	93.5826
1.732	93.6342
1.726	93.718
1.72	93.7054
1.714	93.7269
1.708	93.6742
1.702	93.7197
1.696	93.6616
1.69	93.6742
1.684	93.7023
1.678	93.6046
1.672	93.6557
1.666	93.6655
1.66	93.6685
1.654	93.6714
1.648	93.6951
1.642	93.6596
1.636	93.6885
1.63	93.6377
1.624	93.6037
1.618	93.542
1.612	93.6305
1.606	93.7338
1.6	93.6712
1.594	93.6071
1.588	93.6378
1.582	93.5983
1.576	93.6054
1.57	93.5756
1.564	93.5158
1.558	93.4946
1.552	93.4709
1.546	93.4357
1.54	93.4696
1.534	93.4081
1.528	93.3057
1.522	93.3215
1.516	93.2557
1.51	93.1875
1.504	93.1428
1.498	93.1148
1.492	92.9908
1.486	92.98
1.48	92.9106
1.474	92.8298
1.468	92.8306
1.462	92.7782
1.456	92.7966
1.45	92.739
1.444	92.7841
1.438	92.8112
1.432	92.8148
1.426	92.8726
1.42	92.8497
1.414	92.9589
1.408	93.022
1.402	93.1604
1.396	93.3758
1.39	93.4749
1.384	93.5314
1.378	93.6341
1.372	93.7043
1.366	93.7084
1.36	93.6555
1.354	93.7138
1.348	93.6734
1.342	93.6823
1.336	93.557
1.33	93.6437
1.324	93.6487
1.318	93.5905
1.312	93.6376
1.306	93.7161
1.3	93.6272
1.294	93.5797
1.288	93.5788
1.282	93.6665
1.276	93.6314
1.27	93.6137
1.264	93.5758
1.258	93.5908
1.252	93.5578
1.246	93.5749
1.24	93.5823
1.234	93.5366
1.228	93.5155
1.222	93.5361
1.216	93.5054
1.21	93.4771
1.204	93.5691
1.198	93.4401
1.192	93.5381
1.186	93.4572
1.18	93.4927
1.174	93.4877
1.168	93.4555
1.162	93.4576
1.156	93.5376
1.15	93.4344
1.144	93.5229
1.138	93.5029
1.132	93.4884
1.126	93.5265
1.12	93.4728
1.114	93.5619
1.108	93.5571
1.102	93.553
1.096	93.5365
1.09	93.5416
1.084	93.5962
1.078	93.5181
1.072	93.4519
1.066	93.5581
1.06	93.5326
1.054	93.5709
1.048	93.5743
1.042	93.6072
1.036	93.5484
1.03	93.5329
1.024	93.6933
1.018	93.6246
1.012	93.5851
1.006	93.6215
1	93.5306
0.994	93.609
0.988	93.6632
0.982	93.6327
0.976	93.6388
0.97	93.6703
0.964	93.6674
0.958	93.7312
0.952	93.7171
0.946	93.7902
0.94	93.6919
0.934	93.7584
0.928	93.7014
0.922	93.7444
0.916	93.7432
0.91	93.8424
0.904	93.7655
0.898	93.7435
0.892	93.7368
0.886	93.7413
0.88	93.836
0.874	93.8868
0.868	93.7522
0.862	93.7762
0.856	93.74
0.85	93.8019
0.844	93.8726
0.838	93.7482
0.832	93.8121
0.826	93.7897
0.82	93.7717
0.814	93.836
0.808	93.8781
0.802	93.8098
0.796	93.7179
0.79	93.6831
0.784	93.6603
0.778	93.629
0.772	93.5386
0.766	93.4805
0.76	93.5346
0.754	93.4472
0.748	93.4215
0.742	93.3554
0.736	93.3121
0.73	93.2919
0.724	93.2272
0.718	93.1796
0.712	93.1261
0.706	93.0759
0.7	93.0009
0.694	93.0256
0.688	92.9479
0.682	92.8979
0.676	92.8222
0.67	92.7528
0.664	92.6968
0.658	92.6301
0.652	92.5702
0.646	92.5004
0.64	92.4621
0.634	92.3628
0.628	92.3265
0.622	92.3013
0.616	92.215
0.61	92.1947
0.604	92.1521
0.598	92.1448
0.592	92.1827
0.586	92.1353
0.58	92.0873
0.574	92.0527
0.568	92.0099
0.562	91.9477
0.556	91.8659
0.55	91.7904
0.544	91.6655
0.538	91.5758
0.532	91.4204
0.526	91.2943
0.52	91.1692
0.514	90.9591
0.508	90.8096
0.502	90.5993
0.496	90.3962
0.49	90.1446
0.484	89.957
0.478	89.7789
0.472	89.5912
0.466	89.4343
0.46	89.2742
0.454	89.0884
0.448	88.8665
0.442	88.6024
0.436	88.3319
0.43	88.0161
0.424	87.6989
0.418	87.3449
0.412	87.0238
0.406	86.6819
0.4	86.2629
