Name: Tremolite Ca_2(Mg,Fe^2+)_5Si_8O_22(OH)_2
Type: Mineral
Class: Silicates
Subclass: Inosilicates
Particle Size: 125-500um
Sample No.: IN-5A
Owner: JPL
Wavelength Range: VNIR-SWIR
Measurement: Hemispherical reflectance
X Units: Wavelength (micrometers)
Y Units: Reflectance (percent)
wavelength	value
0.4	61.45
0.403	62.21
0.406	62.51
0.409	62.96
0.412	63.25
0.415	63.65
0.418	64.17
0.421	64.41
0.424	64.68
0.427	64.88
0.43	65.37
0.433	65.66
0.436	66.02
0.439	66.19
0.442	66.57
0.445	66.83
0.448	67.12
0.451	67.43
0.454	67.54
0.457	67.81
0.46	67.96
0.463	68.3
0.466	68.55
0.469	68.61
0.472	68.7
0.475	68.99
0.478	69.29
0.481	69.63
0.484	69.6
0.487	69.66
0.49	69.89
0.493	70.29
0.496	70.4
0.499	70.61
0.502	70.45
0.505	70.76
0.508	71.1
0.511	71.33
0.514	71.38
0.517	71.48
0.52	71.77
0.523	72.05
0.526	72.12
0.529	72.34
0.532	72.3
0.535	72.21
0.538	72.41
0.541	72.56
0.544	72.59
0.547	72.61
0.55	72.9
0.553	73.14
0.556	73.24
0.559	73.33
0.562	73.77
0.565	73.77
0.568	73.8
0.571	73.69
0.574	73.63
0.577	73.79
0.58	73.69
0.583	73.7
0.586	73.74
0.589	73.76
0.592	73.99
0.595	74.1
0.598	74.23
0.601	74.25
0.604	74.55
0.607	74.57
0.61	74.62
0.613	74.6
0.616	74.61
0.619	74.64
0.622	74.89
0.625	74.77
0.628	74.66
0.631	74.72
0.634	74.98
0.637	75.09
0.64	75.05
0.643	74.96
0.646	74.96
0.649	74.91
0.652	75.17
0.655	75.28
0.658	75.21
0.661	75.2
0.664	75.13
0.667	75.38
0.67	75.42
0.673	75.43
0.676	75.38
0.679	75.38
0.682	75.37
0.685	75.57
0.688	75.69
0.691	75.61
0.694	75.64
0.697	75.67
0.7	75.68
0.703	75.75
0.706	75.66
0.709	75.81
0.712	75.72
0.715	75.76
0.718	75.82
0.721	75.69
0.724	75.58
0.727	75.32
0.73	75.86
0.733	75.95
0.736	75.9
0.739	75.82
0.742	75.9
0.745	75.85
0.748	75.86
0.751	75.92
0.754	75.74
0.757	75.76
0.76	75.95
0.763	75.88
0.766	75.81
0.769	75.65
0.772	75.74
0.775	75.92
0.778	75.82
0.781	75.64
0.784	75.76
0.787	75.83
0.79	75.86
0.793	75.72
0.796	75.69
0.799	75.62
0.808	75.45
0.82	75.36
0.832	75.1
0.844	74.93
0.856	74.66
0.868	74.3
0.88	73.86
0.892	73.36
0.904	72.8
0.916	72.22
0.928	71.33
0.94	69.57
0.952	68.37
0.964	68.2
0.976	66.92
0.988	65.62
1	64.75
1.012	63.73
1.024	63.05
1.036	62.87
1.048	63.27
1.06	64.23
1.072	65.99
1.084	67.69
1.096	69.47
1.108	70.97
1.12	72.33
1.132	73.27
1.144	74.03
1.156	74.63
1.168	75.02
1.18	75.52
1.192	75.86
1.204	76.17
1.216	76.38
1.228	76.53
1.24	76.95
1.252	76.97
1.264	76.67
1.276	76.4
1.288	77.04
1.3	77.05
1.312	77.17
1.324	77.16
1.336	77.3
1.348	77.44
1.36	77.05
1.372	74.62
1.384	61.91
1.396	66.19
1.408	76.9
1.42	77.27
1.432	77.37
1.444	77.67
1.456	77.6
1.468	77.27
1.48	77.78
1.492	77.92
1.504	77.95
1.516	78.17
1.528	77.9
1.54	77.93
1.552	78.22
1.564	78.32
1.576	78.27
1.588	78.37
1.6	78.29
1.612	78.23
1.624	78.28
1.636	78.31
1.648	78.29
1.66	78.39
1.672	78.43
1.684	78.38
1.696	78.31
1.708	78.32
1.72	78.3
1.732	78.16
1.744	78
1.756	77.96
1.768	77.95
1.78	78.01
1.792	77.91
1.804	77.69
1.816	77.35
1.828	76.86
1.84	76.38
1.852	76
1.864	75.89
1.876	75.71
1.888	75.38
1.9	74.59
1.912	74.33
1.924	74.44
1.936	74.48
1.948	74.33
1.96	73.89
1.972	73.11
1.984	72.17
1.996	71.55
2.008	71.53
2.02	72.25
2.032	71.96
2.044	70.81
2.056	69.64
2.068	68.95
2.08	68.3
2.092	66.66
2.104	63.74
2.116	62.56
2.128	63.48
2.14	65.15
2.152	66.55
2.164	67.4
2.176	67.72
2.188	67.92
2.2	68.23
2.212	68.07
2.224	67.46
2.236	65.83
2.248	61.79
2.26	54.26
2.272	44.94
2.284	36.11
2.296	29.98
2.308	31.9
2.32	40.26
2.332	49.91
2.344	53.08
2.356	48.65
2.368	41.24
2.38	37.03
2.392	39.19
2.404	44.28
2.416	47.52
2.428	47.89
2.44	46.39
2.452	45.14
2.464	44.41
2.476	44.73
2.488	45.9
2.5	47.13
