Name: Pegmatite
Type: Rock
Class: Igneous
Subclass: Felsic
Particle Size: Solid surface
Sample No.: Ward15.txt
Owner: JPL
Origin: Ward's Collection of American Rocks.  Sample locality - Portland, Middlesex County, Connecticut.
Description: A light gray graphic granite composed chiefly of perthite
Measurement: Hemispherical reflectance
X Units: Wavelength (micrometers)
Y Units: Reflectance (percent)
wavelength	value
15.3871	6.48389
15.118	3.84425
14.8581	3.33454
14.6069	3.74227
14.3642	4.11462
14.1293	4.15729
13.9021	5.15869
13.682	6.00684
13.4687	4.7592
13.2621	5.04589
13.0616	6.74326
12.8672	7.47932
12.6784	6.40864
12.4951	7.71267
12.317	3.02723
12.1439	3.55658
11.9757	4.34679
11.812	4.97118
11.6527	5.4284
11.4977	5.52417
11.3468	5.99351
11.1997	6.57314
11.0564	6.92529
10.9168	7.53849
10.7806	7.88302
10.6478	8.46351
10.5182	9.23161
10.3917	10.2692
10.2683	12.0146
10.1477	14.6218
10.0299	17.9549
9.9148	22.5433
9.8024	23.3945
9.6925	23.6087
9.585	26.3565
9.4798	28.2524
9.377	29.293
9.2763	34.2097
9.1778	35.6972
9.0814	32.515
8.987	29.3382
8.8945	30.2805
8.8039	32.4962
8.7151	33.602
8.6281	29.5461
8.5428	36.2948
8.4592	36.3597
8.3772	34.4303
8.2967	29.661
8.2179	24.2705
8.1404	17.8498
8.0645	10.4697
7.9899	6.08202
7.9167	3.36072
7.8449	1.90819
7.7743	1.45486
7.705	0.87445
7.6369	0.67525
7.57	0.58503
7.5043	0.49881
7.4397	0.50668
7.3762	0.50745
7.3138	0.58132
7.2524	0.68467
7.1921	0.68925
7.1327	0.81326
7.0743	0.96284
7.0169	0.94459
6.9604	1.03585
6.9047	1.13164
6.85	1.10602
6.7962	1.18586
6.7431	1.2945
6.6909	1.26976
6.6395	1.38734
6.5889	1.467
6.539	1.47666
6.49	1.57396
6.4416	1.62619
6.3939	1.73549
6.347	1.68418
6.3007	1.66923
6.2551	1.71685
6.2101	1.80649
6.1658	1.72137
6.1222	1.80055
6.0791	1.89705
6.0366	1.99173
5.9948	2.02331
5.9535	1.94966
5.9127	1.96145
5.8726	1.91304
5.8329	2.06952
5.7938	2.19612
5.7552	2.27391
5.7172	2.25572
5.6796	2.21937
5.6425	2.30953
5.6059	2.29471
5.5698	2.23242
5.5341	2.36044
5.4989	2.60103
5.4641	2.67967
5.4298	2.8315
5.3959	2.7339
5.3624	2.84231
5.3294	2.83684
5.2967	2.84694
5.2644	2.97153
5.2326	3.0022
5.2011	3.24794
5.17	3.38707
5.1392	3.48364
5.1088	3.68553
5.0788	3.89319
5.0491	4.06168
5.0198	4.30647
4.9908	4.2845
4.9622	4.45963
4.9338	4.5997
4.9058	4.73381
4.8781	4.97583
4.8508	5.42931
4.8237	5.54751
4.7969	5.65264
4.7704	5.81615
4.7443	6.06356
4.7184	6.1446
4.6927	5.91339
4.6674	5.98495
4.6423	6.57327
4.6175	7.26324
4.593	7.70698
4.5687	8.04673
4.5447	8.07024
4.5209	8.07592
4.4974	7.9824
4.4741	8.17635
4.451	8.81389
4.4282	9.35317
4.4057	9.89194
4.3833	10.9441
4.3612	11.7581
4.3393	12.7802
4.3176	13.2265
4.2962	13.2325
4.2749	12.9397
4.2539	14.2941
4.233	15.5888
4.2124	17.0902
4.192	17.9119
4.1717	18.8543
4.1517	19.5097
4.1319	20.1747
4.1122	20.8408
4.0927	21.4775
4.0734	21.707
4.0543	21.8585
4.0354	21.8298
4.0166	21.766
3.9981	21.8331
3.9796	22.3098
3.9614	22.8133
3.9433	23.3536
3.9254	23.9402
3.9077	24.2914
3.8901	24.1126
3.8726	24.0724
3.8554	24.3465
3.8382	24.8389
3.8213	25.3502
3.8045	25.8901
3.7878	26.0824
3.7713	25.9319
3.7549	25.9938
3.7386	25.9138
3.7225	26.1473
3.7066	26.8049
3.6907	27.4692
3.675	28.3419
3.6595	28.8383
3.644	28.9245
3.6287	29.0343
3.6136	28.9526
3.5985	28.6892
3.5836	28.7879
3.5688	28.6422
3.5541	28.4214
3.5396	28.3517
3.5251	28.1082
3.5108	27.4921
3.4966	26.934
3.4825	26.6583
3.4685	26.3541
3.4547	26.1899
3.4409	25.6775
3.4273	25.06
3.4137	24.2801
3.4003	23.7649
3.387	23.2787
3.3738	22.627
3.3606	22.5274
3.3476	22.3945
3.3347	21.8258
3.3219	21.4767
3.3092	21.0952
3.2965	20.5208
3.284	19.9571
3.2716	19.7776
3.2593	19.4829
3.247	19.0604
3.2348	18.9156
3.2228	18.7283
3.2108	18.2432
3.1989	18.1239
3.1871	17.8861
3.1754	17.458
3.1638	16.9771
3.1523	16.8198
3.1408	16.2806
3.1294	15.9876
3.1181	15.9354
3.1069	15.6213
3.0958	15.5745
3.0848	15.5218
3.0738	14.885
3.0629	15.034
3.0521	14.8847
3.0413	14.6391
3.0307	14.6727
3.0201	14.1236
3.0096	13.8191
2.9991	13.806
2.9887	14.1014
2.9784	13.6982
2.9682	13.0053
2.9581	12.7376
2.948	12.7935
2.9379	12.4522
2.928	12.4363
2.9181	12.9513
2.9083	13.0046
2.8985	13.5946
2.8888	13.8755
2.8792	14.1834
2.8697	13.7328
2.8602	14.3963
2.8507	14.2003
2.8413	14.4765
2.832	15.2668
2.8228	15.4792
2.8136	15.8039
2.8045	15.8425
2.7954	16.4274
2.7864	16.0565
2.7774	16.8305
2.7685	16.154
2.7597	14.3649
2.7509	15.4535
2.7422	15.2582
2.7335	16.9738
2.7249	17.9286
2.7163	18.9917
2.7078	17.5983
2.6994	19.8576
2.691	28.3769
2.6826	35.3878
2.6743	39.4497
2.666	42.565
2.6578	43.7356
2.6497	45.8193
2.6416	46.7635
2.6336	47.4684
2.6256	48.5226
2.6176	48.8804
2.6097	49.3467
2.6018	49.6358
2.594	50.3006
2.5863	51.1884
2.5785	50.8489
2.5709	51.0191
2.5633	51.4514
2.5557	51.3088
2.5481	52.2761
2.5406	52.5077
2.5332	52.8877
2.5258	52.886
2.5184	53.536
2.5111	53.7602
2.5038	54.0685
2.4966	53.8809
2.4894	54.1792
2.4823	54.9362
2.4752	55.1302
2.4681	55.5508
2.4611	55.4814
2.4541	56.3103
2.4471	56.6506
2.4402	56.6613
2.4333	57.3913
2.4265	57.9931
2.4197	58.4146
2.413	59.0613
2.4063	58.889
2.3996	59.6871
2.3929	60.1253
2.3863	60.338
2.3798	60.9596
2.3732	61.3759
2.3667	61.9258
2.3603	61.7884
2.3538	62.3612
2.3474	63.5418
2.3411	63.1306
2.3347	63.7452
2.3285	64.0385
2.3222	64.3752
2.316	65.3258
2.3098	65.2288
2.3036	65.3719
2.2975	65.5491
2.2914	65.8068
2.2854	66.4555
2.2793	66.3609
2.2733	66.6866
2.2674	66.8388
2.2614	66.9896
2.2555	67.3987
2.2497	67.3452
2.2438	66.7543
2.238	66.5843
2.2322	66.6115
2.2265	67.0318
2.2208	66.1296
2.2151	64.8941
2.2094	60.7911
2.2038	62.9954
2.1982	63.6231
2.1926	64.4043
2.187	64.5549
2.1815	65.2174
2.176	65.1796
2.1706	65.3232
2.1651	66.2241
2.1597	65.657
2.1543	66.6291
2.149	67.6127
2.1436	68.6636
2.1383	69.4681
2.1331	69.6666
2.1278	69.3312
2.1226	68.262
2.1174	69.5602
2.1122	68.9647
2.1071	69.5633
2.1019	70.9273
2.0968	69.6436
2.0918	69.2847
2.0867	68.7351
2.0817	71.4133
2.0767	69.6818
2.0717	71.0137
2.0667	71.1694
2.0618	69.3699
2.0569	69.1564
2.052	68.8761
2.0472	69.1678
2.0423	70.8729
2.0375	69.3187
2.0327	70.6041
2.028	71.0331
2.0232	70.141
2.0185	71.3894
2.0138	69.7587
2.0091	70.4129
2.0044	69.0602
1.9998	69.0888
