Name: Dolomite CaMg(CO_3)_2
Type: Mineral
Class: Carbonates
Particle Size: 0-45um
Sample No.: C-5C
Owner: JPL
Wavelength Range: VNIR-SWIR
Origin: USA, California, Los Angeles County, Palos Verdes
Measurement: Hemispherical reflectance
X Units: Wavelength (micrometers)
Y Units: Reflectance (percent)
wavelength	value
0.4	79.91
0.403	80.19
0.406	80.3
0.409	80.82
0.412	80.59
0.415	80.99
0.418	81.11
0.421	80.93
0.424	81.4
0.427	81.34
0.43	81.51
0.433	81.79
0.436	81.73
0.439	81.96
0.442	81.85
0.445	81.96
0.448	82.08
0.451	81.96
0.454	82.2
0.457	81.97
0.46	82.21
0.463	82.28
0.466	82.33
0.469	82.57
0.472	82.45
0.475	82.69
0.478	82.59
0.481	82.99
0.484	82.93
0.487	82.88
0.49	82.89
0.493	82.78
0.496	83.36
0.499	83.02
0.502	83.25
0.505	83.37
0.508	83.19
0.511	83.65
0.514	83.42
0.517	83.7
0.52	83.6
0.523	83.65
0.526	83.76
0.529	83.48
0.532	83.87
0.535	83.48
0.538	83.7
0.541	83.7
0.544	83.6
0.547	83.82
0.55	83.7
0.553	84.1
0.556	83.87
0.559	84.05
0.562	84.1
0.565	84.28
0.568	84.22
0.571	83.99
0.574	83.99
0.577	83.65
0.58	84.05
0.583	83.76
0.586	83.87
0.589	84.22
0.592	83.87
0.595	84.16
0.598	83.82
0.601	84.16
0.604	84.22
0.607	84.1
0.61	84.45
0.613	84.1
0.616	84.34
0.619	84.05
0.622	84.22
0.625	84.51
0.628	84.1
0.631	84.51
0.634	84.39
0.637	84.22
0.64	84.57
0.643	84.28
0.646	84.39
0.649	84.45
0.652	84.28
0.655	84.68
0.658	84.34
0.661	84.57
0.664	84.57
0.667	84.62
0.67	84.91
0.673	84.62
0.676	84.97
0.679	84.8
0.682	85.03
0.685	84.8
0.688	84.74
0.691	85.2
0.694	84.8
0.697	85.08
0.7	84.62
0.703	84.97
0.706	84.68
0.709	85.14
0.712	85.08
0.715	85.2
0.718	85.36
0.721	85.08
0.724	85.48
0.727	85.14
0.73	85.36
0.733	85.31
0.736	85.2
0.739	85.59
0.742	85.26
0.745	85.53
0.748	85.53
0.751	85.48
0.754	85.71
0.757	85.42
0.76	85.71
0.763	85.65
0.766	85.42
0.769	85.82
0.772	85.53
0.775	85.82
0.778	85.82
0.781	85.48
0.784	85.94
0.787	85.71
0.79	85.94
0.793	86
0.796	85.77
0.799	86
0.808	86.17
0.82	86.05
0.832	86.11
0.844	86.23
0.856	86.34
0.868	86.34
0.88	86.34
0.892	86.17
0.904	86.11
0.916	86.23
0.928	86.11
0.94	86.28
0.952	86.28
0.964	86.28
0.976	86.23
0.988	86.23
1	86.17
1.012	86.23
1.024	86.17
1.036	86.28
1.048	86.4
1.06	86.11
1.072	86.28
1.084	86.28
1.096	86.17
1.108	86.34
1.12	86.17
1.132	86.23
1.144	86.28
1.156	86.33
1.168	86.3
1.18	86.29
1.192	86.21
1.204	86.25
1.216	86.31
1.228	86.37
1.24	86.37
1.252	86.25
1.264	86.12
1.276	86.21
1.288	86.3
1.3	86.28
1.312	86.27
1.324	86.18
1.336	86.16
1.348	86.2
1.36	86.31
1.372	86.2
1.384	86.2
1.396	86.02
1.408	86.04
1.42	86.05
1.432	86.13
1.444	86.16
1.456	86.11
1.468	86.17
1.48	86.11
1.492	86.17
1.504	86.22
1.516	86.33
1.528	86.28
1.54	86.45
1.552	86.39
1.564	86.33
1.576	86.51
1.588	86.39
1.6	86.33
1.612	86.44
1.624	86.35
1.636	86.39
1.648	86.25
1.66	86.35
1.672	86.44
1.684	86.19
1.696	86.06
1.708	86.22
1.72	86.11
1.732	86.28
1.744	86.11
1.756	86.16
1.768	86.05
1.78	86.16
1.792	86.05
1.804	86.02
1.816	85.82
1.828	85.51
1.84	85.38
1.852	85.13
1.864	84.88
1.876	85.27
1.888	85.12
1.9	84.82
1.912	84.63
1.924	84.38
1.936	84.14
1.948	84.11
1.96	83.94
1.972	83.72
1.984	83.88
1.996	84.32
2.008	84.74
2.02	85.01
2.032	85.15
2.044	85.18
2.056	85.25
2.068	85.15
2.08	85.32
2.092	85.1
2.104	85.11
2.116	85.05
2.128	84.71
2.14	84.84
2.152	84.8
2.164	84.82
2.176	84.75
2.188	84.43
2.2	83.85
2.212	83.14
2.224	82.52
2.236	81.29
2.248	79.97
2.26	78.48
2.272	77.45
2.284	76.29
2.296	75.42
2.308	74.91
2.32	75.26
2.332	76.86
2.344	79.15
2.356	81.33
2.368	82.33
2.38	82.42
2.392	81.67
2.404	81.06
2.416	79.94
2.428	78.13
2.44	76.13
2.452	74.17
2.464	72.27
2.476	70.42
2.488	68.75
2.5	67.62
