Name: Sodalite Na_8Al_6Si_6O_24Cl_2
Type: Mineral
Class: Silicates
Subclass: Tectosilicates
Particle Size: 45-125um
Sample No.: TS-10A
Owner: JPL
Wavelength Range: VNIR-SWIR
Origin: Canada, Ontario, Hastings County, Bancroft
Measurement: Hemispherical reflectance
X Units: Wavelength (micrometers)
Y Units: Reflectance (percent)
wavelength	value
0.4	48.66
0.403	49.09
0.406	49.3
0.409	49.66
0.412	49.81
0.415	49.93
0.418	50.02
0.421	50.11
0.424	50.17
0.427	50.22
0.43	50.1
0.433	50.2
0.436	50.25
0.439	50.1
0.442	49.99
0.445	49.96
0.448	49.8
0.451	49.62
0.454	49.3
0.457	49.19
0.46	49.09
0.463	48.74
0.466	48.44
0.469	48.09
0.472	47.7
0.475	47.5
0.478	47.27
0.481	46.91
0.484	46.59
0.487	46.33
0.49	46.01
0.493	45.73
0.496	45.38
0.499	45.08
0.502	44.88
0.505	44.59
0.508	44.15
0.511	43.89
0.514	43.67
0.517	43.43
0.52	43.29
0.523	42.9
0.526	42.59
0.529	42.31
0.532	42.07
0.535	41.83
0.538	41.45
0.541	41.24
0.544	41.09
0.547	40.77
0.55	40.72
0.553	40.44
0.556	40.41
0.559	40.26
0.562	40.39
0.565	40.12
0.568	39.82
0.571	39.65
0.574	39.44
0.577	39.17
0.58	38.93
0.583	38.85
0.586	38.74
0.589	38.68
0.592	38.75
0.595	38.71
0.598	38.64
0.601	38.7
0.604	38.96
0.607	39.18
0.61	39.14
0.613	39.33
0.616	39.56
0.619	39.66
0.622	39.74
0.625	39.76
0.628	39.99
0.631	40.09
0.634	40.1
0.637	40.16
0.64	40.34
0.643	40.49
0.646	40.57
0.649	40.72
0.652	40.99
0.655	41.19
0.658	41.32
0.661	41.64
0.664	42.08
0.667	42.34
0.67	42.73
0.673	43.11
0.676	43.74
0.679	44.42
0.682	44.92
0.685	45.6
0.688	46.47
0.691	47.27
0.694	48.02
0.697	49.03
0.7	49.82
0.703	51.18
0.706	52.27
0.709	53.35
0.712	54.54
0.715	55.69
0.718	56.58
0.721	57.58
0.724	58.67
0.727	59.57
0.73	60.32
0.733	61.02
0.736	61.73
0.739	62.44
0.742	62.88
0.745	63.38
0.748	63.93
0.751	64.41
0.754	64.69
0.757	64.89
0.76	65.39
0.763	65.74
0.766	65.87
0.769	66.01
0.772	66.46
0.775	66.65
0.778	66.73
0.781	66.84
0.784	67
0.787	67.19
0.79	67.19
0.793	67.26
0.796	67.37
0.799	67.54
0.808	68.06
0.82	68.22
0.832	68.31
0.844	68.36
0.856	68.48
0.868	68.46
0.88	68.47
0.892	68.4
0.904	68.33
0.916	68.29
0.928	68.18
0.94	68.16
0.952	68.05
0.964	67.87
0.976	67.71
0.988	67.57
1	67.47
1.012	67.22
1.024	67.07
1.036	66.96
1.048	66.96
1.06	66.89
1.072	66.86
1.084	66.99
1.096	67.06
1.108	67.19
1.12	67.31
1.132	67.63
1.144	67.73
1.156	67.82
1.168	68.15
1.18	68.49
1.192	68.68
1.204	69.02
1.216	69.11
1.228	69.41
1.24	69.58
1.252	69.73
1.264	69.86
1.276	69.91
1.288	70.13
1.3	70.16
1.312	70.37
1.324	70.48
1.336	70.48
1.348	70.59
1.36	70.55
1.372	70.62
1.384	70.42
1.396	70.34
1.408	70.24
1.42	70.23
1.432	70.42
1.444	70.59
1.456	70.77
1.468	71.06
1.48	71.31
1.492	71.42
1.504	71.71
1.516	71.81
1.528	72.07
1.54	72.23
1.552	72.47
1.564	72.75
1.576	72.87
1.588	73.01
1.6	73.18
1.612	73.39
1.624	73.62
1.636	73.88
1.648	74.11
1.66	74.27
1.672	74.47
1.684	74.63
1.696	74.75
1.708	74.91
1.72	75.01
1.732	74.98
1.744	75.1
1.756	75.23
1.768	75.34
1.78	75.43
1.792	75.55
1.804	75.58
1.816	75.66
1.828	75.67
1.84	75.65
1.852	75.53
1.864	75.48
1.876	75.12
1.888	74.79
1.9	73.93
1.912	73.27
1.924	73.29
1.936	73.53
1.948	73.8
1.96	74.04
1.972	74.33
1.984	74.59
1.996	74.94
2.008	75.17
2.02	75.48
2.032	75.63
2.044	75.71
2.056	75.84
2.068	75.96
2.08	76.01
2.092	76.15
2.104	76.13
2.116	75.97
2.128	75.92
2.14	75.74
2.152	75.61
2.164	75.45
2.176	75.34
2.188	75.27
2.2	75.13
2.212	74.93
2.224	74.81
2.236	74.45
2.248	74.02
2.26	73.57
2.272	73.18
2.284	72.73
2.296	72.13
2.308	71.44
2.32	71.06
2.332	70.84
2.344	71.09
2.356	71.86
2.368	72.5
2.38	72.92
2.392	73.07
2.404	72.88
2.416	72.66
2.428	72.1
2.44	71.44
2.452	70.55
2.464	69.53
2.476	68.4
2.488	67.91
2.5	67.14
