Name: Graphite C
Type: Mineral
Class: Elements
Particle Size: 45-125um
Sample No.: E-1A
Owner: JPL
Origin: Mexico, Sonora, Morelos, San Jose Mine.
Measurement: Hemispherical reflectance
X Units: Wavelength (micrometers)
Y Units: Reflectance (percent)
wavelength	value
2.5	5.00557
2.494	4.82357
2.488	4.95363
2.482	4.91746
2.476	5.00831
2.47	5.03467
2.464	4.87693
2.458	4.986
2.452	4.87961
2.446	4.86866
2.44	4.82278
2.434	4.84638
2.428	4.94339
2.422	4.8716
2.416	4.90416
2.41	4.86961
2.404	4.81728
2.398	4.89899
2.392	4.85795
2.386	4.82174
2.38	4.87352
2.374	4.85946
2.368	4.81238
2.362	4.83873
2.356	4.81665
2.35	4.83744
2.344	4.75358
2.338	4.76891
2.332	4.81558
2.326	4.75436
2.32	4.78573
2.314	4.74347
2.308	4.75281
2.302	4.6711
2.296	4.7529
2.29	4.72407
2.284	4.72685
2.278	4.72013
2.272	4.7256
2.266	4.6843
2.26	4.75546
2.254	4.70728
2.248	4.75501
2.242	4.66647
2.236	4.64371
2.23	4.62706
2.224	4.60685
2.218	4.66952
2.212	4.78418
2.206	4.54679
2.2	4.6699
2.194	4.69923
2.188	4.6439
2.182	4.68405
2.176	4.71391
2.17	4.75764
2.164	4.7304
2.158	4.73934
2.152	4.7244
2.146	4.78168
2.14	4.68352
2.134	4.69343
2.128	4.65366
2.122	4.63777
2.116	4.62356
2.11	4.62697
2.104	4.65409
2.098	4.61889
2.092	4.53864
2.086	4.62502
2.08	4.60108
2.074	4.60249
2.068	4.60869
2.062	4.6597
2.056	4.59903
2.05	4.62007
2.044	4.64499
2.038	4.62277
2.032	4.63323
2.026	4.59499
2.02	4.59049
2.014	4.57641
2.008	4.65616
2.002	4.60677
1.996	4.63109
1.99	4.50164
1.984	4.55501
1.978	4.58524
1.972	4.55667
1.966	4.64906
1.96	4.5383
1.954	4.6333
1.948	4.65285
1.942	4.65473
1.936	4.58261
1.93	4.62644
1.924	4.60531
1.918	4.61146
1.912	4.62429
1.906	4.592
1.9	4.59215
1.894	4.59606
1.888	4.46849
1.882	4.58771
1.876	4.55018
1.87	4.51826
1.864	4.5406
1.858	4.43754
1.852	4.45604
1.846	4.46803
1.84	4.54019
1.834	4.48677
1.828	4.52909
1.822	4.43967
1.816	4.45423
1.81	4.50952
1.804	4.44384
1.798	4.45524
1.792	4.46676
1.786	4.44744
1.78	4.42097
1.774	4.43688
1.768	4.40124
1.762	4.38087
1.756	4.42764
1.75	4.41795
1.744	4.35841
1.738	4.3559
1.732	4.40608
1.726	4.32768
1.72	4.38999
1.714	4.3388
1.708	4.35336
1.702	4.30709
1.696	4.31216
1.69	4.29238
1.684	4.22665
1.678	4.33033
1.672	4.22995
1.666	4.22731
1.66	4.18761
1.654	4.3427
1.648	4.21538
1.642	4.30668
1.636	4.20189
1.63	4.30534
1.624	4.22273
1.618	4.23241
1.612	4.21129
1.606	4.23294
1.6	4.29851
1.594	4.22647
1.588	4.26173
1.582	4.24714
1.576	4.18527
1.57	4.22016
1.564	4.19231
1.558	4.1692
1.552	4.16333
1.546	4.20393
1.54	4.18321
1.534	4.14872
1.528	4.19528
1.522	4.14213
1.516	4.15983
1.51	4.14536
1.504	4.13516
1.498	4.17185
1.492	4.1696
1.486	4.11147
1.48	4.20489
1.474	4.14201
1.468	4.10604
1.462	4.12509
1.456	4.16137
1.45	4.11624
1.444	4.07467
1.438	4.11917
1.432	4.13168
1.426	4.08818
1.42	4.08922
1.414	4.02392
1.408	4.03761
1.402	4.15106
1.396	4.16415
1.39	4.08009
1.384	4.12193
1.378	4.09614
1.372	4.086
1.366	4.08051
1.36	4.11351
1.354	4.03814
1.348	4.08528
1.342	4.08743
1.336	4.02142
1.33	4.04639
1.324	4.04098
1.318	3.94637
1.312	3.99064
1.306	3.96765
1.3	3.90611
1.294	3.96394
1.288	3.92987
1.282	3.91658
1.276	3.88135
1.27	3.93157
1.264	3.91902
1.258	3.96891
1.252	3.91247
1.246	3.86058
1.24	3.86705
1.234	3.89891
1.228	3.86491
1.222	3.86284
1.216	3.79227
1.21	3.87889
1.204	3.88972
1.198	3.80535
1.192	3.79029
1.186	3.79921
1.18	3.78023
1.174	3.77181
1.168	3.84055
1.162	3.71477
1.156	3.74385
1.15	3.78626
1.144	3.695
1.138	3.77416
1.132	3.71945
1.126	3.71209
1.12	3.68674
1.114	3.65767
1.108	3.64778
1.102	3.62548
1.096	3.67723
1.09	3.63124
1.084	3.6343
1.078	3.54962
1.072	3.67534
1.066	3.6173
1.06	3.60066
1.054	3.60407
1.048	3.55587
1.042	3.57055
1.036	3.57817
1.03	3.63135
1.024	3.56601
1.018	3.65949
1.012	3.62884
1.006	3.56657
1	3.55582
0.994	3.51242
0.988	3.59169
0.982	3.54421
0.976	3.53096
0.97	3.54872
0.964	3.53928
0.958	3.53583
0.952	3.53589
0.946	3.53952
0.94	3.4779
0.934	3.50535
0.928	3.48674
0.922	3.5201
0.916	3.4778
0.91	3.53986
0.904	3.45041
0.898	3.54298
0.892	3.5043
0.886	3.50755
0.88	3.5154
0.874	3.51079
0.868	3.52068
0.862	3.49721
0.856	3.69388
0.85	3.68466
0.844	3.67622
0.838	3.65737
0.832	3.6499
0.826	3.64156
0.82	3.63534
0.814	3.62312
0.808	3.62142
0.802	3.60658
0.796	3.59465
0.79	3.5888
0.784	3.57986
0.778	3.56825
0.772	3.56163
0.766	3.55012
0.76	3.54497
0.754	3.54162
0.748	3.53191
0.742	3.5277
0.736	3.51968
0.73	3.51314
0.724	3.51049
0.718	3.50249
0.712	3.49892
0.706	3.49456
0.7	3.48938
0.694	3.48702
0.688	3.4836
0.682	3.48248
0.676	3.48011
0.67	3.47718
0.664	3.47994
0.658	3.47656
0.652	3.4749
0.646	3.47606
0.64	3.47637
0.634	3.47543
0.628	3.47744
0.622	3.47697
0.616	3.48022
0.61	3.48142
0.604	3.48619
0.598	3.487
0.592	3.49624
0.586	3.49984
0.58	3.50533
0.574	3.51128
0.568	3.51593
0.562	3.52294
0.556	3.52982
0.55	3.54016
0.544	3.55062
0.538	3.55796
0.532	3.56861
0.526	3.58306
0.52	3.59512
0.514	3.61004
0.508	3.62778
0.502	3.64734
0.496	3.66604
0.49	3.689
0.484	3.70951
0.478	3.72576
0.472	3.74759
0.466	3.77282
0.46	3.8057
0.454	3.83428
0.448	3.8691
0.442	3.90884
0.436	3.94715
0.43	3.98764
0.424	4.03434
0.418	4.08775
0.412	4.14152
0.406	4.20286
0.4	4.27662
