Name: Hematite alpha Fe_2O_3
Type: Mineral
Class: Oxides
Particle Size: 0-45um
Sample No.: O-1B
Owner: JPL
Wavelength Range: VNIR-SWIR
Description: Synthetic hematite.
Measurement: Hemispherical reflectance
X Units: Wavelength (micrometers)
Y Units: Reflectance (percent)
wavelength	value
0.4	2.17
0.403	2.32
0.406	2.32
0.409	2.26
0.412	2.2
0.415	2.26
0.418	2.14
0.421	2.19
0.424	2.2
0.427	2.13
0.43	2.13
0.433	2.08
0.436	2.13
0.439	2.13
0.442	2.13
0.445	2.13
0.448	2.02
0.451	2.08
0.454	2.07
0.457	2.12
0.46	2.11
0.463	2.02
0.466	2.19
0.469	2.13
0.472	1.89
0.475	2.01
0.478	2.01
0.481	2.08
0.484	2.07
0.487	2.01
0.49	2
0.493	2.1
0.496	2.09
0.499	2.03
0.502	2.08
0.505	1.96
0.508	2.08
0.511	2.14
0.514	2.19
0.517	2.2
0.52	2.07
0.523	2.13
0.526	2.25
0.529	2.36
0.532	2.36
0.535	2.23
0.538	2.41
0.541	2.51
0.544	2.68
0.547	2.78
0.55	2.88
0.553	3.11
0.556	3.41
0.559	3.76
0.562	4.39
0.565	4.96
0.568	5.63
0.571	6.39
0.574	7.3
0.577	8.43
0.58	9.48
0.583	10.64
0.586	11.75
0.589	12.97
0.592	14.16
0.595	15.33
0.598	16.29
0.601	17.04
0.604	17.83
0.607	18.53
0.61	19
0.613	19.49
0.616	19.88
0.619	20.27
0.622	20.48
0.625	20.71
0.628	21.03
0.631	21.15
0.634	21.28
0.637	21.55
0.64	21.92
0.643	22.09
0.646	22.3
0.649	22.5
0.652	22.87
0.655	23.21
0.658	23.58
0.661	23.85
0.664	24.02
0.667	24.48
0.67	24.98
0.673	25.38
0.676	25.78
0.679	26.19
0.682	26.72
0.685	27.25
0.688	27.77
0.691	28.33
0.694	28.86
0.697	29.29
0.7	29.72
0.703	30.48
0.706	31.22
0.709	31.68
0.712	32.22
0.715	32.77
0.718	33.17
0.721	33.74
0.724	34.18
0.727	34.41
0.73	34.86
0.733	35.01
0.736	35.29
0.739	35.4
0.742	35.47
0.745	35.5
0.748	35.36
0.751	35.29
0.754	35.19
0.757	34.94
0.76	34.62
0.763	34.33
0.766	34.11
0.769	33.86
0.772	33.51
0.775	32.97
0.778	32.58
0.781	32.29
0.784	31.97
0.787	31.7
0.79	31.17
0.793	30.9
0.796	30.43
0.799	30.38
0.808	29.5
0.82	28.5
0.832	27.8
0.844	27.33
0.856	27.1
0.868	27.18
0.88	27.51
0.892	28.12
0.904	29.07
0.916	30.14
0.928	31.73
0.94	33.64
0.952	35.9
0.964	38.39
0.976	41.11
0.988	44.11
1	46.41
1.012	49.47
1.024	51.87
1.036	53.99
1.048	55.88
1.06	57.63
1.072	59.41
1.084	61.15
1.096	63.02
1.108	64.89
1.12	66.95
1.132	69.05
1.144	71.09
1.156	73.13
1.168	75.09
1.18	76.83
1.192	78.44
1.204	79.84
1.216	80.92
1.228	81.87
1.24	82.66
1.252	83.25
1.264	83.68
1.276	84.17
1.288	84.54
1.3	84.87
1.312	85.07
1.324	85.12
1.336	85.37
1.348	85.46
1.36	85.58
1.372	85.24
1.384	84.9
1.396	85.06
1.408	85.04
1.42	84.91
1.432	85.07
1.444	85.06
1.456	85.13
1.468	85.39
1.48	85.6
1.492	85.67
1.504	85.73
1.516	85.84
1.528	86.05
1.54	86.06
1.552	86.13
1.564	86.23
1.576	86.2
1.588	86.26
1.6	86.34
1.612	86.35
1.624	86.23
1.636	86.29
1.648	86.33
1.66	86.34
1.672	86.32
1.684	86.27
1.696	86.38
1.708	86.35
1.72	86.26
1.732	86.23
1.744	86.24
1.756	86.06
1.768	85.98
1.78	85.99
1.792	85.9
1.804	85.94
1.816	85.89
1.828	85.84
1.84	85.66
1.852	85.38
1.864	84.48
1.876	82.59
1.888	82.33
1.9	82.39
1.912	82.03
1.924	81.84
1.936	81.75
1.948	81.7
1.96	81.97
1.972	82.19
1.984	82.65
1.996	83.01
2.008	83.12
2.02	83.51
2.032	83.7
2.044	83.89
2.056	84.16
2.068	84.24
2.08	84.41
2.092	84.55
2.104	84.75
2.116	84.99
2.128	84.91
2.14	84.94
2.152	84.81
2.164	84.68
2.176	84.58
2.188	84.37
2.2	84.19
2.212	84
2.224	83.89
2.236	83.65
2.248	83.61
2.26	83.51
2.272	83.43
2.284	83.16
2.296	83.03
2.308	82.78
2.32	82.78
2.332	82.57
2.344	82.3
2.356	81.99
2.368	81.64
2.38	81.28
2.392	80.92
2.404	80.74
2.416	80.48
2.428	80.21
2.44	79.95
2.452	79.58
2.464	79.24
2.476	78.84
2.488	78.96
2.5	79.09
