Name: Fluorite CaF_2
Type: Mineral
Class: Halides
Particle Size: 125-500um
Sample No.: H-2A
Owner: JPL
Origin: USA, Illinois, Hardin County, Rosiclare.
Description: Purple fluorite.
Measurement: Hemispherical reflectance
X Units: Wavelength (micrometers)
Y Units: Reflectance (percent)
wavelength	value
2.5	79.0515
2.494	78.9956
2.488	79.1261
2.482	78.9959
2.476	79.2082
2.47	79.2851
2.464	79.4906
2.458	79.5673
2.452	79.67
2.446	79.8261
2.44	79.8192
2.434	79.91
2.428	80.2059
2.422	80.2426
2.416	80.3075
2.41	80.3688
2.404	80.4832
2.398	80.5307
2.392	80.646
2.386	80.7829
2.38	80.8971
2.374	81.0654
2.368	81.0683
2.362	81.1671
2.356	81.3464
2.35	81.374
2.344	81.4691
2.338	81.5065
2.332	81.5454
2.326	81.4594
2.32	81.5539
2.314	81.5029
2.308	81.5168
2.302	81.5779
2.296	81.5589
2.29	81.516
2.284	81.5194
2.278	81.5077
2.272	81.634
2.266	81.5561
2.26	81.5975
2.254	81.6285
2.248	81.6194
2.242	81.6441
2.236	81.6674
2.23	81.7974
2.224	81.7274
2.218	81.7103
2.212	81.8981
2.206	82.054
2.2	82.1784
2.194	82.2772
2.188	82.19
2.182	82.2506
2.176	82.4829
2.17	82.6696
2.164	82.8625
2.158	82.9264
2.152	82.9437
2.146	83.0452
2.14	83.0466
2.134	82.9218
2.128	82.805
2.122	82.5022
2.116	82.2665
2.11	82.0151
2.104	81.7697
2.098	81.6519
2.092	81.7032
2.086	81.7269
2.08	81.7964
2.074	81.8289
2.068	81.897
2.062	81.8897
2.056	81.9725
2.05	82.0102
2.044	82.0472
2.038	82.0644
2.032	81.9941
2.026	82.0533
2.02	81.9376
2.014	81.8925
2.008	81.7963
2.002	81.7036
1.996	81.6391
1.99	81.4384
1.984	81.2061
1.978	81.1258
1.972	81.0281
1.966	80.8479
1.96	80.7373
1.954	80.6423
1.948	80.6035
1.942	80.5485
1.936	80.4471
1.93	80.4809
1.924	80.5245
1.918	80.5517
1.912	80.7511
1.906	81.0931
1.9	81.4921
1.894	81.8716
1.888	82.2809
1.882	82.4651
1.876	82.6828
1.87	82.7881
1.864	82.9232
1.858	82.9119
1.852	82.9099
1.846	82.9646
1.84	83.0043
1.834	83.0378
1.828	83.0134
1.822	83.0196
1.816	82.9668
1.81	83.0749
1.804	83.1001
1.798	83.1511
1.792	83.1212
1.786	83.0747
1.78	83.0745
1.774	83.1116
1.768	83.1362
1.762	82.9974
1.756	83.0618
1.75	83.1121
1.744	83.068
1.738	83.1641
1.732	83.1792
1.726	83.1836
1.72	83.1775
1.714	83.1968
1.708	83.1422
1.702	83.1053
1.696	83.1381
1.69	83.1156
1.684	83.0949
1.678	83.0831
1.672	83.0836
1.666	83.1161
1.66	82.989
1.654	83.0077
1.648	82.9546
1.642	83.1215
1.636	83.0081
1.63	82.9219
1.624	82.9761
1.618	82.9426
1.612	83.0078
1.606	82.9667
1.6	82.9645
1.594	82.8929
1.588	82.9068
1.582	82.8622
1.576	82.8113
1.57	82.7443
1.564	82.7856
1.558	82.7586
1.552	82.8074
1.546	82.7331
1.54	82.6321
1.534	82.6118
1.528	82.542
1.522	82.576
1.516	82.5082
1.51	82.4465
1.504	82.4107
1.498	82.3359
1.492	82.2731
1.486	82.2428
1.48	82.1475
1.474	82.1119
1.468	82.1054
1.462	82.0369
1.456	81.9969
1.45	81.9479
1.444	81.9071
1.438	81.9085
1.432	81.8466
1.426	81.7576
1.42	81.8282
1.414	81.8993
1.408	82.0099
1.402	82.0733
1.396	82.3011
1.39	82.247
1.384	82.37
1.378	82.292
1.372	82.3257
1.366	82.3317
1.36	82.365
1.354	82.3402
1.348	82.1946
1.342	82.2549
1.336	82.3208
1.33	82.2314
1.324	82.2801
1.318	82.2671
1.312	82.2936
1.306	82.262
1.3	82.271
1.294	82.2575
1.288	82.2428
1.282	82.3214
1.276	82.182
1.27	82.1936
1.264	82.1971
1.258	82.1758
1.252	82.1803
1.246	82.1828
1.24	82.1261
1.234	82.071
1.228	82.0809
1.222	82.0849
1.216	82.0722
1.21	82.0481
1.204	82.0234
1.198	82.049
1.192	82.0353
1.186	81.9524
1.18	81.9478
1.174	81.928
1.168	82.0514
1.162	81.9864
1.156	81.9381
1.15	81.9282
1.144	81.9417
1.138	81.9669
1.132	81.9612
1.126	81.9371
1.12	81.8877
1.114	81.9127
1.108	81.934
1.102	81.883
1.096	81.8344
1.09	81.9004
1.084	81.8377
1.078	81.785
1.072	81.802
1.066	81.7853
1.06	81.7617
1.054	81.7245
1.048	81.7487
1.042	81.687
1.036	81.6345
1.03	81.692
1.024	81.6429
1.018	81.5945
1.012	81.6162
1.006	81.6291
1	81.4823
0.994	81.4981
0.988	81.4917
0.982	81.4838
0.976	81.4116
0.97	81.4253
0.964	81.2684
0.958	81.3217
0.952	81.2605
0.946	81.2307
0.94	81.2353
0.934	81.185
0.928	81.1591
0.922	81.1291
0.916	80.9852
0.91	80.9382
0.904	80.81
0.898	80.876
0.892	80.8244
0.886	80.7993
0.88	80.7413
0.874	80.6384
0.868	80.5119
0.862	80.5683
0.856	80.6363
0.85	80.4774
0.844	80.4937
0.838	80.4623
0.832	80.395
0.826	80.3753
0.82	80.2975
0.814	80.2693
0.808	80.223
0.802	80.2185
0.796	80.0595
0.79	79.9167
0.784	79.8671
0.778	79.7072
0.772	79.6685
0.766	79.5763
0.76	79.489
0.754	79.3649
0.748	79.25
0.742	79.1414
0.736	78.9996
0.73	78.8892
0.724	78.7359
0.718	78.5778
0.712	78.4095
0.706	78.2418
0.7	78.0683
0.694	77.8219
0.688	77.6372
0.682	77.3929
0.676	77.1325
0.67	76.8402
0.664	76.498
0.658	76.146
0.652	75.7549
0.646	75.3106
0.64	74.8266
0.634	74.3114
0.628	73.7567
0.622	73.1276
0.616	72.4736
0.61	71.7521
0.604	71.0133
0.598	70.2576
0.592	69.4659
0.586	68.6335
0.58	67.7746
0.574	66.9736
0.568	66.2074
0.562	65.4986
0.556	64.8958
0.55	64.4361
0.544	64.1431
0.538	64.0355
0.532	64.1171
0.526	64.3659
0.52	64.6763
0.514	65.0754
0.508	65.5716
0.502	66.0882
0.496	66.4812
0.49	66.803
0.484	67.2003
0.478	67.5137
0.472	67.6634
0.466	67.8783
0.46	68.1298
0.454	68.1617
0.448	68.2453
0.442	68.4015
0.436	68.3689
0.43	68.3828
0.424	68.4186
0.418	68.4106
0.412	68.5372
0.406	68.6761
0.4	68.84
