Name: Stilbite NaCa_2Al_5Si_3O_36.14H_2O
Type: Mineral
Class: Silicates
Subclass: Tectosilicates
Particle Size: 0-45um
Sample No.: TS-9A
Owner: JPL
Wavelength Range: VNIR-SWIR
Origin: India
Measurement: Hemispherical reflectance
X Units: Wavelength (micrometers)
Y Units: Reflectance (percent)
wavelength	value
0.4	82.11
0.403	82.07
0.406	82.31
0.409	82.45
0.412	82.59
0.415	82.73
0.418	82.82
0.421	82.72
0.424	82.77
0.427	82.94
0.43	82.92
0.433	83.1
0.436	83.25
0.439	83.27
0.442	83.43
0.445	83.37
0.448	83.35
0.451	83.68
0.454	83.76
0.457	83.68
0.46	83.87
0.463	83.82
0.466	83.88
0.469	83.97
0.472	84.07
0.475	84.26
0.478	84.09
0.481	84.21
0.484	84.43
0.487	84.21
0.49	84.36
0.493	84.38
0.496	84.36
0.499	84.62
0.502	84.48
0.505	84.55
0.508	84.77
0.511	84.77
0.514	84.77
0.517	84.96
0.52	84.92
0.523	85.02
0.526	85.12
0.529	85.03
0.532	85.16
0.535	85.12
0.538	85.1
0.541	85.25
0.544	85.4
0.547	85.23
0.55	85.56
0.553	85.59
0.556	85.54
0.559	85.67
0.562	86.19
0.565	86.11
0.568	86.16
0.571	86.08
0.574	85.88
0.577	85.88
0.58	85.89
0.583	85.72
0.586	86.06
0.589	86
0.592	85.89
0.595	86.12
0.598	86.13
0.601	86.09
0.604	86.27
0.607	86.24
0.61	86.21
0.613	86.16
0.616	86.24
0.619	86.07
0.622	86.28
0.625	86.18
0.628	86.24
0.631	86.25
0.634	86.32
0.637	86.29
0.64	86.29
0.643	86.25
0.646	86.32
0.649	86.41
0.652	86.18
0.655	86.46
0.658	86.34
0.661	86.28
0.664	86.34
0.667	86.36
0.67	86.36
0.673	86.44
0.676	86.58
0.679	86.36
0.682	86.36
0.685	86.4
0.688	86.49
0.691	86.52
0.694	86.48
0.697	86.5
0.7	86.43
0.703	86.41
0.706	86.23
0.709	86.53
0.712	86.37
0.715	86.4
0.718	86.42
0.721	86.6
0.724	86.48
0.727	86.41
0.73	86.55
0.733	86.49
0.736	86.64
0.739	86.38
0.742	86.49
0.745	86.55
0.748	86.49
0.751	86.55
0.754	86.55
0.757	86.38
0.76	86.62
0.763	86.68
0.766	86.46
0.769	86.68
0.772	86.75
0.775	86.74
0.778	86.73
0.781	86.74
0.784	86.8
0.787	86.81
0.79	86.86
0.793	86.87
0.796	86.96
0.799	86.77
0.808	86.95
0.82	86.92
0.832	86.86
0.844	86.97
0.856	86.95
0.868	87.05
0.88	86.95
0.892	86.95
0.904	86.95
0.916	86.98
0.928	86.95
0.94	86.88
0.952	86.27
0.964	85.86
0.976	85.94
0.988	86.29
1	86.71
1.012	86.94
1.024	87.23
1.036	87.46
1.048	87.6
1.06	87.58
1.072	87.68
1.084	87.64
1.096	87.58
1.108	87.52
1.12	87.58
1.132	87.2
1.144	85.83
1.156	84.34
1.168	84.79
1.18	85.51
1.192	85.73
1.204	86.03
1.216	86.24
1.228	86.39
1.24	86.56
1.252	86.61
1.264	86.6
1.276	86.54
1.288	86.47
1.3	85.98
1.312	85.26
1.324	84.33
1.336	83.33
1.348	82.12
1.36	80.93
1.372	79.26
1.384	76.22
1.396	71.02
1.408	64.4
1.42	62.04
1.432	63.93
1.444	67.1
1.456	68.72
1.468	69.48
1.48	72.07
1.492	74.4
1.504	75.98
1.516	76.85
1.528	77.56
1.54	78.03
1.552	78.29
1.564	78.57
1.576	78.67
1.588	78.71
1.6	78.9
1.612	79.06
1.624	79.31
1.636	79.44
1.648	79.57
1.66	79.75
1.672	79.97
1.684	79.97
1.696	79.73
1.708	79.22
1.72	78.51
1.732	77.65
1.744	76.93
1.756	76.44
1.768	76.21
1.78	76.03
1.792	75.82
1.804	75.62
1.816	75.19
1.828	74.63
1.84	73.61
1.852	71.84
1.864	68.66
1.876	62.39
1.888	52.59
1.9	40.69
1.912	34.66
1.924	36.4
1.936	41.06
1.948	44.84
1.96	47.42
1.972	49.68
1.984	52.07
1.996	54.87
2.008	57.59
2.02	60.24
2.032	62.3
2.044	63.76
2.056	64.88
2.068	65.51
2.08	66.11
2.092	66.6
2.104	67.2
2.116	67.85
2.128	68.18
2.14	68.45
2.152	68.57
2.164	68.66
2.176	68.62
2.188	68.56
2.2	68.51
2.212	68.33
2.224	68.17
2.236	67.97
2.248	67.66
2.26	67.16
2.272	66.62
2.284	65.79
2.296	64.79
2.308	63.3
2.32	61.87
2.332	60.15
2.344	58.03
2.356	55.35
2.368	52.46
2.38	49.17
2.392	45.97
2.404	43.22
2.416	40.92
2.428	39.11
2.44	37.74
2.452	36.61
2.464	35.67
2.476	34.91
2.488	34.13
2.5	33.24
