Name: Columbite Fe^2+Nb_2O_6
Type: Mineral
Class: Oxides
Particle Size: 125-500um
Sample No.: O-7A
Owner: JPL
Origin: USA, South Dakota, Pennington County, Keystone.
Measurement: Hemispherical reflectance
X Units: Wavelength (micrometers)
Y Units: Reflectance (percent)
wavelength	value
2.5	9.18933
2.494	9.20294
2.488	9.18896
2.482	9.04488
2.476	8.93782
2.47	9.07185
2.464	9.05158
2.458	9.05003
2.452	9.09375
2.446	9.04598
2.44	9.02435
2.434	8.96358
2.428	8.95898
2.422	8.87844
2.416	8.86155
2.41	8.78117
2.404	8.83672
2.398	8.79834
2.392	8.80172
2.386	8.82758
2.38	8.7423
2.374	8.7685
2.368	8.76735
2.362	8.77025
2.356	8.64188
2.35	8.72205
2.344	8.69299
2.338	8.62574
2.332	8.58829
2.326	8.56626
2.32	8.51321
2.314	8.49424
2.308	8.44163
2.302	8.47501
2.296	8.42125
2.29	8.38771
2.284	8.37198
2.278	8.36761
2.272	8.33163
2.266	8.2992
2.26	8.32757
2.254	8.11462
2.248	8.19833
2.242	8.22635
2.236	8.14204
2.23	8.13335
2.224	8.05342
2.218	8.11553
2.212	8.22478
2.206	8.04887
2.2	8.04736
2.194	8.0376
2.188	7.99238
2.182	8.02191
2.176	7.97921
2.17	7.94681
2.164	7.96075
2.158	7.89749
2.152	7.87301
2.146	7.83659
2.14	7.81191
2.134	7.73807
2.128	7.81155
2.122	7.70447
2.116	7.61244
2.11	7.56295
2.104	7.55339
2.098	7.43635
2.092	7.42902
2.086	7.3999
2.08	7.34987
2.074	7.3444
2.068	7.28731
2.062	7.27744
2.056	7.23105
2.05	7.24862
2.044	7.19131
2.038	7.20617
2.032	7.13799
2.026	7.08103
2.02	7.02539
2.014	7.03643
2.008	6.97793
2.002	6.99266
1.996	6.9422
1.99	6.91158
1.984	6.9092
1.978	6.87675
1.972	6.86062
1.966	6.94109
1.96	6.79206
1.954	6.77839
1.948	6.80842
1.942	6.76409
1.936	6.72213
1.93	6.67632
1.924	6.69413
1.918	6.7419
1.912	6.668
1.906	6.65315
1.9	6.55827
1.894	6.5027
1.888	6.53648
1.882	6.50625
1.876	6.47924
1.87	6.50985
1.864	6.51124
1.858	6.44187
1.852	6.38604
1.846	6.34049
1.84	6.36474
1.834	6.37331
1.828	6.25164
1.822	6.28714
1.816	6.26895
1.81	6.18278
1.804	6.17928
1.798	6.17168
1.792	6.14742
1.786	6.16483
1.78	6.09985
1.774	6.08234
1.768	6.11149
1.762	6.06429
1.756	6.04629
1.75	6.11687
1.744	6.10788
1.738	6.01322
1.732	5.99969
1.726	5.97969
1.72	6.01415
1.714	5.99405
1.708	6.0003
1.702	6.02285
1.696	6.01589
1.69	5.91849
1.684	5.90517
1.678	5.86961
1.672	5.84944
1.666	5.87761
1.66	5.85375
1.654	5.91651
1.648	5.8836
1.642	5.9641
1.636	5.95147
1.63	5.81455
1.624	5.8638
1.618	5.88808
1.612	5.90342
1.606	5.75441
1.6	5.86015
1.594	5.90645
1.588	5.83375
1.582	5.85572
1.576	5.83374
1.57	5.89579
1.564	5.874
1.558	5.84935
1.552	5.82158
1.546	5.83015
1.54	5.87349
1.534	5.81546
1.528	5.84192
1.522	5.86879
1.516	5.77665
1.51	5.85437
1.504	5.83702
1.498	5.84354
1.492	5.80689
1.486	5.79014
1.48	5.85683
1.474	5.87585
1.468	5.92749
1.462	5.90261
1.456	5.86231
1.45	5.83231
1.444	5.83343
1.438	5.86325
1.432	5.85204
1.426	5.89763
1.42	5.83239
1.414	5.82967
1.408	5.93177
1.402	5.92576
1.396	5.95473
1.39	5.92316
1.384	5.89082
1.378	5.86515
1.372	5.89441
1.366	5.96023
1.36	5.91937
1.354	5.85198
1.348	5.83333
1.342	5.84684
1.336	5.86286
1.33	5.88969
1.324	5.92093
1.318	5.85345
1.312	5.8674
1.306	5.81355
1.3	5.87591
1.294	5.83638
1.288	5.85883
1.282	5.88199
1.276	5.8206
1.27	5.85203
1.264	5.87425
1.258	5.79591
1.252	5.84191
1.246	5.84112
1.24	5.83461
1.234	5.87931
1.228	5.84152
1.222	5.86256
1.216	5.7882
1.21	5.81775
1.204	5.86288
1.198	5.83785
1.192	5.83137
1.186	5.84063
1.18	5.77002
1.174	5.87162
1.168	5.81406
1.162	5.85007
1.156	5.84561
1.15	5.82955
1.144	5.78901
1.138	5.81527
1.132	5.83473
1.126	5.84299
1.12	5.77776
1.114	5.87313
1.108	5.75768
1.102	5.8636
1.096	5.77943
1.09	5.87595
1.084	5.80362
1.078	5.80786
1.072	5.8984
1.066	5.79889
1.06	5.88648
1.054	5.94537
1.048	5.80174
1.042	5.83775
1.036	5.80616
1.03	5.82002
1.024	5.86723
1.018	5.88676
1.012	5.8773
1.006	5.87279
1	5.87065
0.994	5.84303
0.988	5.87149
0.982	5.85921
0.976	5.86787
0.97	5.86147
0.964	5.8602
0.958	5.85463
0.952	5.90568
0.946	5.84405
0.94	5.8563
0.934	5.91687
0.928	5.91117
0.922	5.84081
0.916	5.93481
0.91	5.91494
0.904	5.88488
0.898	5.90241
0.892	5.93702
0.886	5.91697
0.88	5.96692
0.874	5.88584
0.868	5.86521
0.862	5.94373
0.856	6.139
0.85	6.1446
0.844	6.11932
0.838	6.12375
0.832	6.10788
0.826	6.08985
0.82	6.0944
0.814	6.08183
0.808	6.08296
0.802	6.07076
0.796	6.06135
0.79	6.05591
0.784	6.05068
0.778	6.04312
0.772	6.03679
0.766	6.03164
0.76	6.02587
0.754	6.01515
0.748	6.01484
0.742	6.01618
0.736	6.00824
0.73	6.00139
0.724	6.00139
0.718	5.9974
0.712	5.99534
0.706	5.992
0.7	5.98763
0.694	5.98511
0.688	5.98261
0.682	5.98398
0.676	5.97932
0.67	5.9816
0.664	5.98348
0.658	5.98082
0.652	5.98323
0.646	5.98376
0.64	5.98448
0.634	5.98557
0.628	5.98694
0.622	5.98957
0.616	5.99387
0.61	5.99505
0.604	6.00081
0.598	6.00673
0.592	6.01339
0.586	6.01612
0.58	6.02427
0.574	6.02799
0.568	6.03396
0.562	6.03885
0.556	6.05308
0.55	6.06154
0.544	6.06817
0.538	6.08051
0.532	6.08811
0.526	6.10524
0.52	6.11702
0.514	6.13721
0.508	6.15667
0.502	6.17474
0.496	6.20723
0.49	6.23394
0.484	6.26042
0.478	6.27565
0.472	6.30413
0.466	6.33402
0.46	6.37392
0.454	6.41318
0.448	6.45227
0.442	6.49922
0.436	6.54218
0.43	6.59551
0.424	6.6536
0.418	6.71276
0.412	6.78315
0.406	6.85799
0.4	6.94028
