Name: Johannsenite Ca(Mn,Fe^2+)(SiO_3)_2
Type: Mineral
Class: Silicates
Subclass: Inosilicates
Particle Size: 45-125um
Sample No.: IN-12A
Owner: JPL
Wavelength Range: VNIR-SWIR
Origin: USA, Arizona, Graham County, Aravaipa
Measurement: Hemispherical reflectance
X Units: Wavelength (micrometers)
Y Units: Reflectance (percent)
wavelength	value
0.4	3.13
0.403	3.11
0.406	3.17
0.409	3.17
0.412	3.05
0.415	3.17
0.418	3.17
0.421	3.23
0.424	3.22
0.427	3.22
0.43	3.17
0.433	3.22
0.436	3.17
0.439	3.23
0.442	3.21
0.445	3.34
0.448	3.22
0.451	3.23
0.454	3.27
0.457	3.36
0.46	3.36
0.463	3.45
0.466	3.34
0.469	3.46
0.472	3.58
0.475	3.51
0.478	3.52
0.481	3.49
0.484	3.62
0.487	3.61
0.49	3.72
0.493	3.64
0.496	3.75
0.499	3.73
0.502	3.84
0.505	3.76
0.508	4
0.511	3.89
0.514	4
0.517	3.95
0.52	4
0.523	4.1
0.526	4.2
0.529	4.33
0.532	4.33
0.535	4.32
0.538	4.27
0.541	4.2
0.544	4.59
0.547	4.56
0.55	4.48
0.553	4.65
0.556	4.7
0.559	4.76
0.562	4.79
0.565	4.85
0.568	4.74
0.571	4.91
0.574	4.99
0.577	5
0.58	5.01
0.583	4.97
0.586	4.9
0.589	5.02
0.592	4.96
0.595	5.2
0.598	5.16
0.601	5.19
0.604	5.15
0.607	5.25
0.61	5.22
0.613	5.35
0.616	5.34
0.619	5.43
0.622	5.28
0.625	5.22
0.628	5.4
0.631	5.36
0.634	5.57
0.637	5.47
0.64	5.51
0.643	5.36
0.646	5.63
0.649	5.52
0.652	5.57
0.655	5.65
0.658	5.65
0.661	5.56
0.664	5.69
0.667	5.57
0.67	5.69
0.673	5.8
0.676	5.8
0.679	5.74
0.682	5.69
0.685	5.85
0.688	5.85
0.691	5.8
0.694	5.81
0.697	5.76
0.7	5.72
0.703	5.8
0.706	5.84
0.709	5.85
0.712	5.86
0.715	5.91
0.718	5.97
0.721	5.96
0.724	5.86
0.727	5.9
0.73	6.01
0.733	5.98
0.736	5.9
0.739	5.96
0.742	6.02
0.745	6.01
0.748	5.96
0.751	5.89
0.754	6.02
0.757	6.07
0.76	6.17
0.763	6.01
0.766	6.06
0.769	6.11
0.772	6.06
0.775	6.17
0.778	6.17
0.781	6.29
0.784	6.23
0.787	6.33
0.79	6.22
0.793	6.4
0.796	6.39
0.799	6.38
0.808	6.77
0.82	6.86
0.832	6.91
0.844	7.04
0.856	7.13
0.868	7.2
0.88	7.26
0.892	7.38
0.904	7.37
0.916	7.32
0.928	7.36
0.94	7.39
0.952	7.4
0.964	7.5
0.976	7.55
0.988	7.65
1	7.63
1.012	7.83
1.024	7.92
1.036	8.05
1.048	8.08
1.06	8.27
1.072	8.37
1.084	8.51
1.096	8.59
1.108	8.61
1.12	8.77
1.132	8.89
1.144	8.96
1.156	8.93
1.168	9.1
1.18	9.27
1.192	9.32
1.204	9.58
1.216	9.76
1.228	10
1.24	10.21
1.252	10.5
1.264	10.79
1.276	11.09
1.288	11.44
1.3	11.71
1.312	12.1
1.324	12.51
1.336	12.79
1.348	13.14
1.36	13.56
1.372	13.84
1.384	14.17
1.396	14.45
1.408	14.65
1.42	15.05
1.432	15.37
1.444	15.68
1.456	16.16
1.468	16.57
1.48	16.8
1.492	17.2
1.504	17.62
1.516	18
1.528	18.39
1.54	18.72
1.552	19.06
1.564	19.43
1.576	19.81
1.588	20.11
1.6	20.42
1.612	20.85
1.624	21.22
1.636	21.49
1.648	21.88
1.66	22.29
1.672	22.6
1.684	22.88
1.696	23.32
1.708	23.71
1.72	24.03
1.732	24.28
1.744	24.6
1.756	25
1.768	25.23
1.78	25.56
1.792	25.94
1.804	26.27
1.816	26.6
1.828	27
1.84	27.35
1.852	27.45
1.864	27.64
1.876	27.49
1.888	26.55
1.9	25.23
1.912	24.85
1.924	25.34
1.936	25.97
1.948	26.51
1.96	27.1
1.972	27.8
1.984	28.42
1.996	29.03
2.008	29.75
2.02	30.3
2.032	30.83
2.044	31.41
2.056	31.88
2.068	32.23
2.08	32.72
2.092	33.21
2.104	33.64
2.116	34.08
2.128	34.47
2.14	34.77
2.152	34.91
2.164	35.25
2.176	35.42
2.188	35.43
2.2	35.58
2.212	35.63
2.224	35.63
2.236	35.88
2.248	35.77
2.26	35.67
2.272	35.61
2.284	35.17
2.296	35.23
2.308	35.79
2.32	36.32
2.332	36.58
2.344	36.71
2.356	36.64
2.368	36.23
2.38	35.85
2.392	35.56
2.404	35.3
2.416	34.92
2.428	34.52
2.44	34.2
2.452	33.73
2.464	33.14
2.476	32.66
2.488	32.33
2.5	32.07
