Name: Biotite K(Mg,Fe^2+)_3(Al,Fe^3+)Si_3O_10(OH,F)_2
Type: Mineral
Class: Silicates
Subclass: Phyllosilicates
Particle Size: 125-500um
Sample No.: PS-23A
Owner: JPL
Wavelength Range: VNIR-SWIR
Measurement: Hemispherical reflectance
X Units: Wavelength (micrometers)
Y Units: Reflectance (percent)
wavelength	value
0.4	9.05
0.403	8.99
0.406	9.09
0.409	9.14
0.412	9.19
0.415	9.18
0.418	9.21
0.421	9.4
0.424	9.42
0.427	9.45
0.43	9.59
0.433	9.73
0.436	9.7
0.439	9.63
0.442	9.83
0.445	9.82
0.448	9.91
0.451	9.97
0.454	10.15
0.457	10.25
0.46	10.21
0.463	10.31
0.466	10.42
0.469	10.54
0.472	10.69
0.475	10.59
0.478	10.71
0.481	10.95
0.484	11.2
0.487	11.18
0.49	11.29
0.493	11.33
0.496	11.57
0.499	11.6
0.502	11.63
0.505	11.73
0.508	11.94
0.511	11.96
0.514	12.1
0.517	12.21
0.52	12.18
0.523	12.45
0.526	12.43
0.529	12.49
0.532	12.63
0.535	12.84
0.538	12.81
0.541	12.84
0.544	12.91
0.547	12.97
0.55	12.98
0.553	12.97
0.556	12.97
0.559	13.08
0.562	13.19
0.565	13.19
0.568	13.46
0.571	13.51
0.574	13.5
0.577	13.54
0.58	13.6
0.583	13.66
0.586	13.58
0.589	13.56
0.592	13.71
0.595	13.81
0.598	13.79
0.601	13.87
0.604	13.82
0.607	14.02
0.61	13.89
0.613	13.81
0.616	13.94
0.619	13.95
0.622	13.91
0.625	13.89
0.628	13.89
0.631	13.91
0.634	13.83
0.637	13.74
0.64	13.83
0.643	13.92
0.646	13.88
0.649	13.83
0.652	13.85
0.655	13.78
0.658	13.81
0.661	13.68
0.664	13.63
0.667	13.75
0.67	13.72
0.673	13.65
0.676	13.59
0.679	13.64
0.682	13.56
0.685	13.46
0.688	13.49
0.691	13.56
0.694	13.49
0.697	13.48
0.7	13.49
0.703	13.55
0.706	13.53
0.709	13.58
0.712	13.62
0.715	13.69
0.718	13.62
0.721	13.6
0.724	13.81
0.727	13.8
0.73	13.8
0.733	13.86
0.736	13.83
0.739	13.99
0.742	13.89
0.745	13.98
0.748	14.14
0.751	14.22
0.754	14.21
0.757	14.29
0.76	14.32
0.763	14.55
0.766	14.51
0.769	14.58
0.772	14.8
0.775	14.94
0.778	14.95
0.781	15.04
0.784	15.18
0.787	15.33
0.79	15.43
0.793	15.47
0.796	15.66
0.799	15.82
0.808	16.41
0.82	16.63
0.832	16.81
0.844	16.83
0.856	16.8
0.868	16.83
0.88	16.9
0.892	16.96
0.904	16.94
0.916	17.09
0.928	17.29
0.94	17.5
0.952	17.62
0.964	17.92
0.976	17.98
0.988	18.29
1	18.48
1.012	18.82
1.024	18.89
1.036	19.09
1.048	19.21
1.06	19.34
1.072	19.45
1.084	19.54
1.096	19.62
1.108	19.58
1.12	19.71
1.132	19.88
1.144	19.9
1.156	20.09
1.168	20.35
1.18	20.58
1.192	20.74
1.204	21.08
1.216	21.34
1.228	21.63
1.24	22.01
1.252	22.34
1.264	22.79
1.276	23.22
1.288	23.66
1.3	24.05
1.312	24.51
1.324	24.97
1.336	25.39
1.348	25.84
1.36	26.28
1.372	26.72
1.384	27.19
1.396	27.59
1.408	28.18
1.42	28.68
1.432	29.1
1.444	29.66
1.456	30.17
1.468	30.6
1.48	31.12
1.492	31.62
1.504	32.04
1.516	32.66
1.528	33.02
1.54	33.48
1.552	34
1.564	34.49
1.576	34.92
1.588	35.36
1.6	35.92
1.612	36.4
1.624	36.97
1.636	37.4
1.648	37.88
1.66	38.33
1.672	38.87
1.684	39.3
1.696	39.7
1.708	40.27
1.72	40.74
1.732	41.13
1.744	41.55
1.756	41.98
1.768	42.38
1.78	42.76
1.792	43.27
1.804	43.69
1.816	43.99
1.828	44.42
1.84	44.77
1.852	45.06
1.864	45.56
1.876	45.89
1.888	46.2
1.9	46.49
1.912	46.89
1.924	47.23
1.936	47.57
1.948	48
1.96	48.32
1.972	48.78
1.984	49.24
1.996	49.66
2.008	50.07
2.02	50.51
2.032	50.78
2.044	51.16
2.056	51.46
2.068	51.81
2.08	52.28
2.092	52.56
2.104	52.88
2.116	53.32
2.128	53.63
2.14	53.79
2.152	54.02
2.164	54.27
2.176	54.47
2.188	54.7
2.2	54.97
2.212	55.18
2.224	55.36
2.236	55.2
2.248	55.25
2.26	55.46
2.272	55.84
2.284	55.9
2.296	55.65
2.308	55.08
2.32	54.75
2.332	54.52
2.344	54.88
2.356	55.42
2.368	55.68
2.38	55.74
2.392	55.81
2.404	56.14
2.416	56.65
2.428	57.13
2.44	57.51
2.452	57.74
2.464	58.03
2.476	58.22
2.488	58.69
2.5	59.12
