Name: Pyrolusite MnO_2
Type: Mineral
Class: Oxides
Particle Size: <0-45um
Sample No.: O-6A
Owner: JPL
Wavelength Range: VNIR-SWIR
Origin: Mexico, Chihuahua
Measurement: Hemispherical reflectance
X Units: Wavelength (micrometers)
Y Units: Reflectance (percent)
wavelength	value
0.4	5.7
0.403	5.66
0.406	5.65
0.409	5.72
0.412	5.72
0.415	5.71
0.418	5.66
0.421	5.6
0.424	5.7
0.427	5.7
0.43	5.65
0.433	5.7
0.436	5.53
0.439	5.65
0.442	5.69
0.445	5.62
0.448	5.57
0.451	5.66
0.454	5.63
0.457	5.58
0.46	5.69
0.463	5.51
0.466	5.57
0.469	5.57
0.472	5.45
0.475	5.5
0.478	5.44
0.481	5.63
0.484	5.5
0.487	5.49
0.49	5.47
0.493	5.44
0.496	5.48
0.499	5.46
0.502	5.38
0.505	5.37
0.508	5.49
0.511	5.38
0.514	5.38
0.517	5.37
0.52	5.35
0.523	5.34
0.526	5.31
0.529	5.29
0.532	5.26
0.535	5.23
0.538	5.3
0.541	5.28
0.544	5.26
0.547	5.23
0.55	5.31
0.553	5.19
0.556	5.15
0.559	5.17
0.562	5.23
0.565	5.18
0.568	5.19
0.571	5.18
0.574	5.2
0.577	5.1
0.58	5.04
0.583	5.17
0.586	5.11
0.589	5.18
0.592	5.12
0.595	5.12
0.598	5.04
0.601	5.08
0.604	5.09
0.607	5.06
0.61	5.1
0.613	5.04
0.616	5.1
0.619	5
0.622	5.04
0.625	4.99
0.628	5.03
0.631	4.99
0.634	4.98
0.637	4.99
0.64	4.98
0.643	4.99
0.646	4.97
0.649	4.98
0.652	5.03
0.655	4.94
0.658	4.97
0.661	4.87
0.664	4.91
0.667	4.93
0.67	4.92
0.673	4.92
0.676	4.86
0.679	4.98
0.682	4.92
0.685	4.92
0.688	4.97
0.691	4.98
0.694	4.93
0.697	4.92
0.7	4.91
0.703	4.97
0.706	4.98
0.709	4.86
0.712	4.93
0.715	4.86
0.718	4.92
0.721	4.92
0.724	4.92
0.727	4.92
0.73	4.91
0.733	4.88
0.736	4.92
0.739	4.92
0.742	4.81
0.745	4.91
0.748	5.02
0.751	5.09
0.754	5.2
0.757	5.09
0.76	5.14
0.763	5.02
0.766	4.95
0.769	4.96
0.772	4.84
0.775	4.79
0.778	4.96
0.781	4.95
0.784	4.89
0.787	4.95
0.79	4.89
0.793	5.07
0.796	5.02
0.799	4.99
0.808	5.27
0.82	5.29
0.832	5.21
0.844	5.21
0.856	5.22
0.868	5.17
0.88	5.3
0.892	5.3
0.904	5.3
0.916	5.3
0.928	5.23
0.94	5.31
0.952	5.32
0.964	5.31
0.976	5.43
0.988	5.48
1	5.43
1.012	5.53
1.024	5.56
1.036	5.6
1.048	5.55
1.06	5.63
1.072	5.68
1.084	5.75
1.096	5.88
1.108	5.9
1.12	6.09
1.132	6.18
1.144	6.24
1.156	6.39
1.168	6.49
1.18	6.58
1.192	6.69
1.204	6.87
1.216	7
1.228	7.13
1.24	7.34
1.252	7.53
1.264	7.77
1.276	7.97
1.288	8.17
1.3	8.37
1.312	8.57
1.324	8.76
1.336	9.02
1.348	9.19
1.36	9.37
1.372	9.6
1.384	9.71
1.396	9.88
1.408	9.93
1.42	10.08
1.432	10.19
1.444	10.31
1.456	10.3
1.468	10.44
1.48	10.42
1.492	10.58
1.504	10.6
1.516	10.66
1.528	10.7
1.54	10.72
1.552	10.81
1.564	10.84
1.576	10.89
1.588	10.9
1.6	11.04
1.612	11.1
1.624	11.18
1.636	11.21
1.648	11.23
1.66	11.37
1.672	11.39
1.684	11.5
1.696	11.5
1.708	11.59
1.72	11.57
1.732	11.75
1.744	11.71
1.756	11.74
1.768	11.76
1.78	11.89
1.792	11.86
1.804	11.99
1.816	12.06
1.828	12.14
1.84	12.11
1.852	12.2
1.864	12.21
1.876	12.28
1.888	12.31
1.9	12.25
1.912	12.34
1.924	12.38
1.936	12.44
1.948	12.57
1.96	12.53
1.972	12.67
1.984	12.77
1.996	12.82
2.008	12.87
2.02	13.01
2.032	13.03
2.044	13.07
2.056	13.1
2.068	13.14
2.08	13.19
2.092	13.28
2.104	13.35
2.116	13.34
2.128	13.41
2.14	13.4
2.152	13.49
2.164	13.53
2.176	13.61
2.188	13.62
2.2	13.72
2.212	13.67
2.224	13.75
2.236	13.84
2.248	13.8
2.26	13.84
2.272	13.87
2.284	13.92
2.296	13.97
2.308	14.03
2.32	14.1
2.332	14.22
2.344	14.27
2.356	14.27
2.368	14.35
2.38	14.35
2.392	14.45
2.404	14.4
2.416	14.44
2.428	14.49
2.44	14.45
2.452	14.42
2.464	14.51
2.476	14.51
2.488	14.59
2.5	14.75
