Name: Muscovite KAl_2(Si_3Al)O_10(OH,F)_2
Type: Mineral
Class: Silicates
Subclass: Phyllosilicates
Particle Size: 125-500um
Sample No.: PS-16A
Owner: JPL
Origin: USA, Connecticut.
Measurement: Hemispherical reflectance
X Units: Wavelength (micrometers)
Y Units: Reflectance (percent)
wavelength	value
2.5	38.3048
2.494	37.7522
2.488	37.5651
2.482	37.2283
2.476	36.8328
2.47	36.3237
2.464	35.9725
2.458	35.2299
2.452	34.6568
2.446	34.3851
2.44	33.9835
2.434	33.9471
2.428	34.3569
2.422	35.0296
2.416	36.0134
2.41	37.0788
2.404	38.1563
2.398	38.7953
2.392	39.2664
2.386	39.2844
2.38	39.2832
2.374	39.2977
2.368	39.2717
2.362	39.0091
2.356	38.4982
2.35	38.1278
2.344	38.075
2.338	38.8051
2.332	40.1715
2.326	41.844
2.32	43.8892
2.314	45.9342
2.308	47.9442
2.302	49.9042
2.296	51.6306
2.29	52.8476
2.284	53.6374
2.278	54.0963
2.272	54.3019
2.266	54.0786
2.26	53.6632
2.254	52.9551
2.248	52.0058
2.242	50.9635
2.236	49.6039
2.23	47.9874
2.224	45.8324
2.218	42.4375
2.212	38.394
2.206	34.6758
2.2	32.6772
2.194	32.8556
2.188	35.7473
2.182	40.7836
2.176	46.2
2.17	50.7788
2.164	54.1411
2.158	56.5327
2.152	58.3027
2.146	59.5071
2.14	60.1376
2.134	60.3686
2.128	60.1791
2.122	59.9471
2.116	60.0759
2.11	60.6304
2.104	61.4355
2.098	62.4883
2.092	63.6379
2.086	64.6381
2.08	65.2972
2.074	65.8553
2.068	66.0899
2.062	66.3999
2.056	66.522
2.05	66.7327
2.044	66.7998
2.038	66.9551
2.032	67.1336
2.026	67.1771
2.02	67.2519
2.014	67.2723
2.008	67.3029
2.002	67.3075
1.996	67.3489
1.99	67.2253
1.984	67.2587
1.978	67.1969
1.972	67.2962
1.966	67.241
1.96	67.2617
1.954	67.2835
1.948	67.3035
1.942	67.3492
1.936	67.2604
1.93	67.2844
1.924	67.2701
1.918	67.3951
1.912	67.5535
1.906	67.9696
1.9	68.3027
1.894	68.7312
1.888	69.0298
1.882	69.278
1.876	69.4191
1.87	69.5718
1.864	69.5583
1.858	69.5265
1.852	69.3831
1.846	69.251
1.84	69.1661
1.834	69.2612
1.828	69.4995
1.822	69.6977
1.816	69.8795
1.81	69.9248
1.804	70.0166
1.798	70.0783
1.792	70.062
1.786	70.009
1.78	69.9385
1.774	69.8911
1.768	69.9227
1.762	69.914
1.756	69.9989
1.75	70.1256
1.744	70.1124
1.738	70.1164
1.732	70.1233
1.726	70.1767
1.72	70.1569
1.714	70.1483
1.708	70.0949
1.702	70.1766
1.696	70.2251
1.69	70.1974
1.684	70.197
1.678	70.1969
1.672	70.2023
1.666	70.1114
1.66	70.1896
1.654	70.1922
1.648	70.2076
1.642	70.2172
1.636	70.2118
1.63	70.2584
1.624	70.2501
1.618	70.2911
1.612	70.3176
1.606	70.3288
1.6	70.2578
1.594	70.232
1.588	70.2243
1.582	70.1634
1.576	70.1498
1.57	70.1577
1.564	70.1039
1.558	70.0231
1.552	69.9909
1.546	69.9921
1.54	69.9023
1.534	69.9471
1.528	69.8043
1.522	69.7286
1.516	69.6986
1.51	69.5565
1.504	69.493
1.498	69.4625
1.492	69.3381
1.486	69.3057
1.48	69.1791
1.474	69.0292
1.468	68.8967
1.462	68.7073
1.456	68.5407
1.45	68.1369
1.444	67.809
1.438	66.9953
1.432	64.5955
1.426	59.4675
1.42	51.1067
1.414	42.7663
1.408	43.4262
1.402	46.8088
1.396	55.3355
1.39	63.6858
1.384	65.6783
1.378	66.0761
1.372	66.4103
1.366	66.6579
1.36	66.8143
1.354	66.8618
1.348	66.6874
1.342	66.4708
1.336	66.215
1.33	65.9791
1.324	65.8005
1.318	65.6503
1.312	65.558
1.306	65.5683
1.3	65.5961
1.294	65.5253
1.288	65.6068
1.282	65.577
1.276	65.4917
1.27	65.3539
1.264	65.2083
1.258	64.9965
1.252	64.7516
1.246	64.4883
1.24	64.5354
1.234	64.3645
1.228	64.3063
1.222	64.1737
1.216	63.9977
1.21	63.8664
1.204	63.6931
1.198	63.5717
1.192	63.3763
1.186	63.2432
1.18	63.0479
1.174	62.9646
1.168	62.7702
1.162	62.6699
1.156	62.5648
1.15	62.422
1.144	62.2642
1.138	62.1694
1.132	62.1
1.126	62.0726
1.12	61.8616
1.114	61.7877
1.108	61.6476
1.102	61.658
1.096	61.622
1.09	61.5068
1.084	61.4928
1.078	61.4796
1.072	61.3577
1.066	61.3519
1.06	61.3085
1.054	61.3812
1.048	61.3032
1.042	61.2709
1.036	61.286
1.03	61.15
1.024	61.0809
1.018	60.9979
1.012	61.0293
1.006	60.9747
1	60.7689
0.994	60.7454
0.988	60.5712
0.982	60.4411
0.976	60.1465
0.97	59.5428
0.964	59.097
0.958	59.1474
0.952	59.4795
0.946	59.4228
0.94	59.3175
0.934	59.1235
0.928	58.9611
0.922	58.8003
0.916	58.6721
0.91	58.5906
0.904	58.4569
0.898	58.434
0.892	58.4128
0.886	58.4205
0.88	58.4355
0.874	58.5048
0.868	58.528
0.862	58.5623
0.856	59.0874
0.85	59.2623
0.844	59.4658
0.838	59.6706
0.832	59.8861
0.826	60.1122
0.82	60.313
0.814	60.506
0.808	60.6611
0.802	60.8582
0.796	60.9625
0.79	61.1175
0.784	61.2081
0.778	61.2747
0.772	61.3497
0.766	61.424
0.76	61.4406
0.754	61.4645
0.748	61.4781
0.742	61.4129
0.736	61.3412
0.73	61.3061
0.724	61.2171
0.718	61.0709
0.712	60.8852
0.706	60.7033
0.7	60.5269
0.694	60.3385
0.688	60.1249
0.682	59.9028
0.676	59.6758
0.67	59.4619
0.664	59.2004
0.658	58.9464
0.652	58.7242
0.646	58.4736
0.64	58.1936
0.634	57.9093
0.628	57.6315
0.622	57.3267
0.616	57.0111
0.61	56.6677
0.604	56.3135
0.598	55.9409
0.592	55.5452
0.586	55.0967
0.58	54.6199
0.574	54.177
0.568	53.7593
0.562	53.3386
0.556	52.7932
0.55	52.2062
0.544	51.5329
0.538	50.8202
0.532	50.0786
0.526	49.3227
0.52	48.5806
0.514	47.7861
0.508	47.0233
0.502	46.3607
0.496	45.8247
0.49	45.1718
0.484	44.4127
0.478	43.8274
0.472	43.2138
0.466	42.7253
0.46	42.1617
0.454	41.39
0.448	40.387
0.442	39.1488
0.436	38.1222
0.43	37.0498
0.424	35.9242
0.418	34.8497
0.412	33.8709
0.406	32.8217
0.4	31.7166
