Name: Titanite (Sphene) CaTiSiO_5
Type: Mineral
Class: Silicates
Subclass: Nesosilicates
Particle Size: 45-125um
Sample No.: NS-7A
Owner: JPL
Wavelength Range: VNIR-SWIR
Origin: Brazil, Minas Gerais, Capelinha
Measurement: Hemispherical reflectance
X Units: Wavelength (micrometers)
Y Units: Reflectance (percent)
wavelength	value
0.4	26.19
0.403	28.06
0.406	29.74
0.409	31.2
0.412	33.01
0.415	34.75
0.418	36.42
0.421	38.01
0.424	39.64
0.427	41.27
0.43	42.9
0.433	44.44
0.436	46.03
0.439	47.34
0.442	48.59
0.445	49.99
0.448	51.28
0.451	52.4
0.454	53.6
0.457	54.74
0.46	55.46
0.463	56.98
0.466	57.89
0.469	58.76
0.472	59.81
0.475	60.82
0.478	61.6
0.481	62.36
0.484	63.3
0.487	64.28
0.49	64.91
0.493	65.78
0.496	66.42
0.499	67.11
0.502	67.93
0.505	68.59
0.508	68.93
0.511	69.58
0.514	70.41
0.517	70.75
0.52	71.28
0.523	71.54
0.526	71.82
0.529	72.29
0.532	72.65
0.535	72.59
0.538	72.98
0.541	73.21
0.544	73.39
0.547	73.56
0.55	73.55
0.553	73.55
0.556	73.68
0.559	73.74
0.562	73.99
0.565	73.81
0.568	73.44
0.571	73.39
0.574	73.3
0.577	73.01
0.58	72.91
0.583	72.6
0.586	72.41
0.589	72.61
0.592	72.47
0.595	72.3
0.598	72.37
0.601	72.62
0.604	72.62
0.607	72.58
0.61	72.58
0.613	72.75
0.616	72.98
0.619	73.17
0.622	73.2
0.625	73.61
0.628	74.12
0.631	74.41
0.634	74.91
0.637	75.15
0.64	75.55
0.643	76.04
0.646	76.66
0.649	76.89
0.652	77.37
0.655	78.01
0.658	78.4
0.661	78.83
0.664	79.34
0.667	79.62
0.67	79.97
0.673	80.56
0.676	80.88
0.679	80.99
0.682	81.37
0.685	81.85
0.688	82.15
0.691	82.39
0.694	82.56
0.697	82.67
0.7	82.66
0.703	82.83
0.706	83.03
0.709	83.55
0.712	83.61
0.715	83.81
0.718	83.78
0.721	83.87
0.724	84.19
0.727	84.28
0.73	84.2
0.733	84.48
0.736	84.67
0.739	84.66
0.742	84.71
0.745	84.7
0.748	84.78
0.751	84.94
0.754	85
0.757	84.78
0.76	84.95
0.763	85.18
0.766	85.24
0.769	85.09
0.772	85.3
0.775	85.48
0.778	85.52
0.781	85.47
0.784	85.44
0.787	85.65
0.79	85.71
0.793	85.65
0.796	85.54
0.799	85.57
0.808	85.55
0.82	85.61
0.832	85.6
0.844	85.7
0.856	85.69
0.868	85.6
0.88	85.31
0.892	85.2
0.904	84.97
0.916	84.67
0.928	84.37
0.94	84.05
0.952	83.74
0.964	83.4
0.976	82.92
0.988	82.56
1	82.2
1.012	81.64
1.024	81.19
1.036	80.84
1.048	80.35
1.06	79.96
1.072	79.69
1.084	79.31
1.096	78.99
1.108	78.63
1.12	78.42
1.132	78.12
1.144	77.79
1.156	77.5
1.168	77.15
1.18	76.84
1.192	76.57
1.204	76.27
1.216	75.96
1.228	75.72
1.24	75.44
1.252	75.1
1.264	74.81
1.276	74.53
1.288	74.38
1.3	73.99
1.312	73.74
1.324	73.46
1.336	73.38
1.348	73.16
1.36	73.03
1.372	72.85
1.384	72.72
1.396	72.59
1.408	72.51
1.42	72.34
1.432	72.28
1.444	72.23
1.456	71.9
1.468	71.28
1.48	71.43
1.492	72.02
1.504	72.34
1.516	72.32
1.528	72.39
1.54	72.49
1.552	72.61
1.564	72.62
1.576	72.7
1.588	72.76
1.6	72.91
1.612	73.06
1.624	73.13
1.636	73.24
1.648	73.42
1.66	73.55
1.672	73.69
1.684	73.79
1.696	73.96
1.708	74.09
1.72	74.17
1.732	74.36
1.744	74.44
1.756	74.53
1.768	74.61
1.78	74.63
1.792	74.83
1.804	75.02
1.816	75.16
1.828	75.3
1.84	75.43
1.852	75.56
1.864	75.86
1.876	75.98
1.888	75.98
1.9	75.95
1.912	75.98
1.924	76.18
1.936	76.33
1.948	76.59
1.96	76.75
1.972	77.03
1.984	77.46
1.996	77.71
2.008	77.84
2.02	77.9
2.032	77.92
2.044	78
2.056	78.12
2.068	78.25
2.08	78.55
2.092	78.78
2.104	78.99
2.116	79.06
2.128	78.97
2.14	78.61
2.152	77.69
2.164	75.75
2.176	71.05
2.188	64.03
2.2	60.38
2.212	61.46
2.224	63.45
2.236	63.75
2.248	62.9
2.26	62.5
2.272	64.13
2.284	66.31
2.296	68.26
2.308	70.33
2.32	72.31
2.332	73.82
2.344	74.23
2.356	72.97
2.368	68.91
2.38	62.1
2.392	56.08
2.404	54.87
2.416	58.01
2.428	62.66
2.44	65.81
2.452	66.92
2.464	66.36
2.476	65.3
2.488	64.71
2.5	64.32
