Name: Magnesite MgCO_3
Type: Mineral
Class: Carbonates
Particle Size: 0-45um
Sample No.: C-6A
Owner: JPL
Wavelength Range: VNIR-SWIR
Origin: USA, California, Riverside County
Measurement: Hemispherical reflectance
X Units: Wavelength (micrometers)
Y Units: Reflectance (percent)
wavelength	value
0.4	78.99
0.403	79.33
0.406	79.56
0.409	79.85
0.412	80.24
0.415	80.02
0.418	80.53
0.421	80.3
0.424	80.7
0.427	80.88
0.43	80.99
0.433	81.28
0.436	81.28
0.439	81.9
0.442	81.73
0.445	82.08
0.448	82.08
0.451	82.31
0.454	82.55
0.457	82.37
0.46	82.66
0.463	82.61
0.466	83.19
0.469	83.09
0.472	83.37
0.475	83.32
0.478	83.67
0.481	83.79
0.484	83.74
0.487	84.08
0.49	83.98
0.493	84.44
0.496	84.38
0.499	84.68
0.502	84.8
0.505	84.8
0.508	85.26
0.511	85.14
0.514	85.65
0.517	85.36
0.52	85.48
0.523	85.77
0.526	85.59
0.529	86.05
0.532	85.82
0.535	85.82
0.538	86.11
0.541	85.88
0.544	86.05
0.547	85.82
0.55	86.28
0.553	86.34
0.556	86.23
0.559	86.46
0.562	86.63
0.565	86.69
0.568	86.63
0.571	86.63
0.574	86.11
0.577	86.51
0.58	86.28
0.583	86.34
0.586	86.46
0.589	86.34
0.592	86.74
0.595	86.46
0.598	86.69
0.601	86.69
0.604	86.63
0.607	86.97
0.61	86.69
0.613	86.92
0.616	86.8
0.619	86.51
0.622	86.92
0.625	86.51
0.628	86.8
0.631	86.57
0.634	86.8
0.637	86.63
0.64	86.69
0.643	86.92
0.646	86.57
0.649	86.92
0.652	86.8
0.655	86.92
0.658	86.92
0.661	86.51
0.664	86.97
0.667	86.86
0.67	86.97
0.673	86.97
0.676	86.86
0.679	87.2
0.682	86.86
0.685	87.14
0.688	86.97
0.691	87.02
0.694	87.2
0.697	87.08
0.7	86.86
0.703	86.86
0.706	87.14
0.709	87.02
0.712	87.37
0.715	87.08
0.718	87.37
0.721	87.48
0.724	87.08
0.727	87.54
0.73	87.25
0.733	87.43
0.736	87.37
0.739	87.2
0.742	87.66
0.745	87.37
0.748	87.6
0.751	87.48
0.754	87.66
0.757	87.66
0.76	87.6
0.763	87.83
0.766	87.54
0.769	87.71
0.772	87.48
0.775	87.6
0.778	87.77
0.781	87.48
0.784	87.89
0.787	87.54
0.79	87.77
0.793	88
0.796	87.6
0.799	88
0.808	88
0.82	87.94
0.832	88.12
0.844	88.17
0.856	88.17
0.868	88.23
0.88	88.12
0.892	88.12
0.904	88.17
0.916	88.12
0.928	88.12
0.94	88.12
0.952	88.17
0.964	88
0.976	87.94
0.988	88.17
1	87.94
1.012	87.89
1.024	87.94
1.036	88.06
1.048	87.83
1.06	87.94
1.072	87.89
1.084	87.83
1.096	87.83
1.108	87.89
1.12	87.89
1.132	87.94
1.144	87.89
1.156	87.7
1.168	87.63
1.18	87.55
1.192	87.64
1.204	87.51
1.216	87.62
1.228	87.45
1.24	87.57
1.252	87.45
1.264	87.49
1.276	87.58
1.288	87.61
1.3	87.48
1.312	87.41
1.324	87.38
1.336	87.24
1.348	87.28
1.36	87.11
1.372	86.94
1.384	85.97
1.396	85.85
1.408	85.58
1.42	85.2
1.432	85.16
1.444	85.12
1.456	85.25
1.468	85.13
1.48	85.31
1.492	85.31
1.504	85.25
1.516	85.19
1.528	85.19
1.54	85.19
1.552	85.31
1.564	85.42
1.576	85.48
1.588	85.42
1.6	85.36
1.612	85.34
1.624	85.32
1.636	85.3
1.648	85.34
1.66	85.09
1.672	85.19
1.684	85.22
1.696	85.15
1.708	85.14
1.72	85.14
1.732	85.08
1.744	85.08
1.756	84.91
1.768	84.91
1.78	84.79
1.792	84.79
1.804	84.94
1.816	84.57
1.828	84.55
1.84	84.41
1.852	84.06
1.864	83.75
1.876	82.76
1.888	80.98
1.9	79.04
1.912	78.22
1.924	78.09
1.936	78.35
1.948	78.22
1.96	78.23
1.972	77.95
1.984	78.29
1.996	78.45
2.008	78.53
2.02	78.75
2.032	78.85
2.044	79.07
2.056	79.14
2.068	79.38
2.08	79.62
2.092	79.96
2.104	80.48
2.116	80.83
2.128	80.83
2.14	81.24
2.152	81.35
2.164	81.53
2.176	81.45
2.188	81.23
2.2	80.98
2.212	80.6
2.224	80.17
2.236	79.55
2.248	78.9
2.26	78.09
2.272	77.57
2.284	77.02
2.296	76.82
2.308	77.48
2.32	78.22
2.332	78.59
2.344	78.59
2.356	78.21
2.368	77.34
2.38	76.61
2.392	75.81
2.404	75.18
2.416	74.28
2.428	73.21
2.44	72.09
2.452	71.08
2.464	70.05
2.476	69.21
2.488	68.86
2.5	68.52
