Name: Magnetite Fe^2+Fe_2^3+O_4
Type: Mineral
Class: Oxides
Particle Size: 0-45um
Sample No.: O-4A
Owner: JPL
Origin: Canada, Ontario, Haliburton County, Wilberforce.
Measurement: Hemispherical reflectance
X Units: Wavelength (micrometers)
Y Units: Reflectance (percent)
wavelength	value
2.5	6.6745
2.494	6.58624
2.488	6.65706
2.482	6.61352
2.476	6.71336
2.47	6.55069
2.464	6.49882
2.458	6.56752
2.452	6.49584
2.446	6.47072
2.44	6.50141
2.434	6.39467
2.428	6.50539
2.422	6.54676
2.416	6.48886
2.41	6.47464
2.404	6.47383
2.398	6.43078
2.392	6.48065
2.386	6.47053
2.38	6.46695
2.374	6.44871
2.368	6.41479
2.362	6.41128
2.356	6.39565
2.35	6.3923
2.344	6.38975
2.338	6.40801
2.332	6.39151
2.326	6.39012
2.32	6.3936
2.314	6.31851
2.308	6.34863
2.302	6.38508
2.296	6.39323
2.29	6.3463
2.284	6.32735
2.278	6.30272
2.272	6.31052
2.266	6.24469
2.26	6.30864
2.254	6.19399
2.248	6.23461
2.242	6.23883
2.236	6.19329
2.23	6.20445
2.224	6.18468
2.218	6.22731
2.212	6.36053
2.206	6.24634
2.2	6.17266
2.194	6.20869
2.188	6.23306
2.182	6.15467
2.176	6.2511
2.17	6.16919
2.164	6.30281
2.158	6.14475
2.152	6.18993
2.146	6.24506
2.14	6.19422
2.134	6.18399
2.128	6.17949
2.122	6.16615
2.116	6.11955
2.11	6.06474
2.104	6.09597
2.098	6.07788
2.092	6.07669
2.086	6.0625
2.08	6.04385
2.074	6.04076
2.068	6.01144
2.062	6.04218
2.056	6.02283
2.05	6.0564
2.044	6.0327
2.038	5.99489
2.032	6.02494
2.026	5.98454
2.02	5.99526
2.014	5.93289
2.008	5.99712
2.002	5.98916
1.996	5.92659
1.99	5.98298
1.984	5.92175
1.978	5.89776
1.972	5.89446
1.966	5.93173
1.96	5.94834
1.954	5.83806
1.948	5.7972
1.942	5.89949
1.936	5.83913
1.93	5.86662
1.924	5.88926
1.918	5.80823
1.912	5.83439
1.906	5.75136
1.9	5.86986
1.894	5.79652
1.888	5.79646
1.882	5.80184
1.876	5.70802
1.87	5.7032
1.864	5.78461
1.858	5.6792
1.852	5.70867
1.846	5.66201
1.84	5.63975
1.834	5.64041
1.828	5.59761
1.822	5.62963
1.816	5.6091
1.81	5.58528
1.804	5.52951
1.798	5.5632
1.792	5.56358
1.786	5.56322
1.78	5.54065
1.774	5.50246
1.768	5.46447
1.762	5.4571
1.756	5.45736
1.75	5.45562
1.744	5.39607
1.738	5.39822
1.732	5.38778
1.726	5.35602
1.72	5.35919
1.714	5.30286
1.708	5.29229
1.702	5.29189
1.696	5.28844
1.69	5.28705
1.684	5.21221
1.678	5.24138
1.672	5.27849
1.666	5.18036
1.66	5.16355
1.654	5.17924
1.648	5.11118
1.642	5.18756
1.636	5.12591
1.63	5.07993
1.624	5.09683
1.618	5.06926
1.612	5.05078
1.606	5.06627
1.6	4.96957
1.594	4.97156
1.588	5.0166
1.582	4.96024
1.576	4.99425
1.57	4.91734
1.564	4.93632
1.558	4.98597
1.552	4.9404
1.546	4.83395
1.54	4.89059
1.534	4.87327
1.528	4.88648
1.522	4.82086
1.516	4.83863
1.51	4.79328
1.504	4.81392
1.498	4.79617
1.492	4.74571
1.486	4.77622
1.48	4.72545
1.474	4.79289
1.468	4.77007
1.462	4.71839
1.456	4.71954
1.45	4.67196
1.444	4.66156
1.438	4.60145
1.432	4.59544
1.426	4.59451
1.42	4.59361
1.414	4.55301
1.408	4.57203
1.402	4.62552
1.396	4.54112
1.39	4.57244
1.384	4.53791
1.378	4.53459
1.372	4.5062
1.366	4.42525
1.36	4.38697
1.354	4.45191
1.348	4.44113
1.342	4.41351
1.336	4.36195
1.33	4.36081
1.324	4.43864
1.318	4.32343
1.312	4.31375
1.306	4.3291
1.3	4.24937
1.294	4.21285
1.288	4.2394
1.282	4.2429
1.276	4.19916
1.27	4.18831
1.264	4.19024
1.258	4.12572
1.252	4.13346
1.246	4.09303
1.24	4.12726
1.234	4.07688
1.228	4.04756
1.222	4.05351
1.216	4.03243
1.21	4.02794
1.204	3.97046
1.198	3.99497
1.192	4.01744
1.186	3.97359
1.18	3.95132
1.174	4.00383
1.168	3.97164
1.162	3.93322
1.156	3.87322
1.15	3.916
1.144	3.89462
1.138	3.88058
1.132	3.90261
1.126	3.8179
1.12	3.88458
1.114	3.85828
1.108	3.84499
1.102	3.78185
1.096	3.84375
1.09	3.7737
1.084	3.80884
1.078	3.796
1.072	3.82199
1.066	3.81077
1.06	3.85076
1.054	3.84151
1.048	3.88397
1.042	3.79798
1.036	3.92758
1.03	3.83274
1.024	3.80128
1.018	3.9074
1.012	3.83382
1.006	3.84725
1	3.85599
0.994	3.81744
0.988	3.83015
0.982	3.87149
0.976	3.93348
0.97	3.88686
0.964	3.94212
0.958	3.92926
0.952	3.95502
0.946	3.96627
0.94	3.96921
0.934	3.94879
0.928	3.93621
0.922	3.94363
0.916	4.01492
0.91	4.00458
0.904	3.97327
0.898	4.05208
0.892	4.09103
0.886	4.07112
0.88	4.0929
0.874	4.07025
0.868	4.0909
0.862	4.12881
0.856	4.37993
0.85	4.39172
0.844	4.40509
0.838	4.42429
0.832	4.42332
0.826	4.4466
0.82	4.46253
0.814	4.47623
0.808	4.49169
0.802	4.51332
0.796	4.51917
0.79	4.54194
0.784	4.55503
0.778	4.57387
0.772	4.58825
0.766	4.60322
0.76	4.61636
0.754	4.62869
0.748	4.64518
0.742	4.65116
0.736	4.66463
0.73	4.68077
0.724	4.69086
0.718	4.70643
0.712	4.71961
0.706	4.73311
0.7	4.74838
0.694	4.75941
0.688	4.77323
0.682	4.78519
0.676	4.7938
0.67	4.81117
0.664	4.82082
0.658	4.83185
0.652	4.8395
0.646	4.84786
0.64	4.85642
0.634	4.8602
0.628	4.8657
0.622	4.87155
0.616	4.87173
0.61	4.87492
0.604	4.88113
0.598	4.88478
0.592	4.89155
0.586	4.89275
0.58	4.89516
0.574	4.89634
0.568	4.89543
0.562	4.89508
0.556	4.90096
0.55	4.89988
0.544	4.89659
0.538	4.89534
0.532	4.89388
0.526	4.8954
0.52	4.89764
0.514	4.90406
0.508	4.91324
0.502	4.93158
0.496	4.94097
0.49	4.96849
0.484	4.99313
0.478	4.98578
0.472	4.99127
0.466	5.00504
0.46	5.0218
0.454	5.05673
0.448	5.09887
0.442	5.14254
0.436	5.17545
0.43	5.20522
0.424	5.24777
0.418	5.2824
0.412	5.31497
0.406	5.3568
0.4	5.40437
