Name: Beryl Be_3Al_2Si_6O_18
Type: Mineral
Class: Silicates
Subclass: Cyclosilicates
Particle Size: 0-45um
Sample No.: CS-2A
Owner: JPL
Wavelength Range: VNIR-SWIR
Origin: Brazil, Minas Gerais
Measurement: Hemispherical reflectance
X Units: Wavelength (micrometers)
Y Units: Reflectance (percent)
wavelength	value
0.4	55.22
0.403	55.2
0.406	55.34
0.409	55.43
0.412	55.35
0.415	55.57
0.418	55.52
0.421	55.48
0.424	55.47
0.427	55.6
0.43	55.54
0.433	55.51
0.436	55.79
0.439	55.93
0.442	55.75
0.445	55.75
0.448	55.92
0.451	56.03
0.454	55.92
0.457	55.96
0.46	56.15
0.463	56.01
0.466	56.24
0.469	56.3
0.472	56.1
0.475	56.19
0.478	56.19
0.481	56.19
0.484	56.28
0.487	56.37
0.49	56.23
0.493	56.34
0.496	56.35
0.499	56.4
0.502	56.29
0.505	56.46
0.508	56.42
0.511	56.34
0.514	56.35
0.517	56.55
0.52	56.56
0.523	56.47
0.526	56.44
0.529	56.46
0.532	56.41
0.535	56.36
0.538	56.49
0.541	56.42
0.544	56.49
0.547	56.58
0.55	56.6
0.553	56.51
0.556	56.67
0.559	56.63
0.562	56.9
0.565	56.78
0.568	56.85
0.571	56.69
0.574	56.5
0.577	56.51
0.58	56.65
0.583	56.35
0.586	56.49
0.589	56.48
0.592	56.49
0.595	56.59
0.598	56.62
0.601	56.6
0.604	56.66
0.607	56.63
0.61	56.52
0.613	56.56
0.616	56.43
0.619	56.36
0.622	56.52
0.625	56.58
0.628	56.41
0.631	56.35
0.634	56.41
0.637	56.33
0.64	56.39
0.643	56.4
0.646	56.34
0.649	56.29
0.652	56.41
0.655	56.36
0.658	56.27
0.661	56.29
0.664	56.25
0.667	56.32
0.67	56.29
0.673	56.27
0.676	56.13
0.679	56.26
0.682	56.2
0.685	56.14
0.688	56.1
0.691	56.19
0.694	56.06
0.697	55.98
0.7	55.98
0.703	55.97
0.706	55.87
0.709	55.87
0.712	55.81
0.715	55.88
0.718	55.63
0.721	55.73
0.724	55.78
0.727	55.77
0.73	55.57
0.733	55.48
0.736	55.52
0.739	55.32
0.742	55.41
0.745	55.37
0.748	55.28
0.751	55.09
0.754	55.17
0.757	54.99
0.76	55.02
0.763	55.06
0.766	54.98
0.769	54.81
0.772	54.83
0.775	54.92
0.778	54.77
0.781	54.95
0.784	54.9
0.787	54.85
0.79	54.75
0.793	54.71
0.796	54.72
0.799	54.65
0.808	54.74
0.82	54.73
0.832	54.86
0.844	55
0.856	55.21
0.868	55.32
0.88	55.47
0.892	55.61
0.904	55.84
0.916	55.92
0.928	56.05
0.94	56.12
0.952	56.12
0.964	56.3
0.976	56.27
0.988	56.42
1	56.36
1.012	56.35
1.024	56.42
1.036	56.52
1.048	56.55
1.06	56.51
1.072	56.55
1.084	56.58
1.096	56.67
1.108	56.69
1.12	56.77
1.132	56.68
1.144	56.29
1.156	56.61
1.168	56.58
1.18	56.65
1.192	56.66
1.204	56.71
1.216	56.68
1.228	56.69
1.24	56.71
1.252	56.6
1.264	56.66
1.276	56.66
1.288	56.67
1.3	56.71
1.312	56.63
1.324	56.52
1.336	56.45
1.348	56.27
1.36	55.88
1.372	55.83
1.384	55.78
1.396	52.47
1.408	55.54
1.42	55.93
1.432	56.16
1.444	56.36
1.456	56.17
1.468	56.18
1.48	56.44
1.492	56.49
1.504	56.57
1.516	56.58
1.528	56.6
1.54	56.62
1.552	56.63
1.564	56.61
1.576	56.62
1.588	56.6
1.6	56.59
1.612	56.6
1.624	56.67
1.636	56.58
1.648	56.6
1.66	56.62
1.672	56.54
1.684	56.62
1.696	56.58
1.708	56.52
1.72	56.58
1.732	56.55
1.744	56.46
1.756	56.49
1.768	56.38
1.78	56.19
1.792	56.21
1.804	55.81
1.816	54.86
1.828	54.24
1.84	54.27
1.852	54.85
1.864	54.89
1.876	52.85
1.888	48.59
1.9	50.19
1.912	54.3
1.924	55.3
1.936	55.25
1.948	55.24
1.96	55.39
1.972	55.68
1.984	56.13
1.996	56.43
2.008	56.51
2.02	56.63
2.032	56.59
2.044	56.56
2.056	56.55
2.068	56.62
2.08	56.72
2.092	56.77
2.104	56.92
2.116	57.02
2.128	56.87
2.14	56.76
2.152	56.64
2.164	56.6
2.176	56.55
2.188	56.43
2.2	56.5
2.212	56.49
2.224	56.53
2.236	56.52
2.248	56.5
2.26	56.47
2.272	56.5
2.284	56.51
2.296	56.51
2.308	56.51
2.32	56.58
2.332	56.52
2.344	56.46
2.356	56.32
2.368	56.2
2.38	56.09
2.392	55.99
2.404	55.95
2.416	55.81
2.428	55.56
2.44	55.25
2.452	54.87
2.464	54.37
2.476	53.71
2.488	53.22
2.5	52.36
