Name: Natrolite Na_2Al_2Si_3O_10.2H_2O
Type: Mineral
Class: Silicates
Subclass: Tectosilicates
Particle Size: 45-125um
Sample No.: TS-8A
Owner: JPL
Wavelength Range: VNIR-SWIR
Origin: India, Maharashtra, Poona
Measurement: Hemispherical reflectance
X Units: Wavelength (micrometers)
Y Units: Reflectance (percent)
wavelength	value
0.4	75.8
0.403	75.93
0.406	76.05
0.409	76.32
0.412	76.4
0.415	76.57
0.418	76.47
0.421	76.67
0.424	76.93
0.427	76.93
0.43	77.12
0.433	77.27
0.436	77.38
0.439	77.67
0.442	77.72
0.445	77.85
0.448	78.01
0.451	78.06
0.454	78.38
0.457	78.44
0.46	78.75
0.463	78.89
0.466	79
0.469	79.1
0.472	79.31
0.475	79.48
0.478	79.71
0.481	79.79
0.484	80.03
0.487	80.11
0.49	80.32
0.493	80.6
0.496	80.72
0.499	80.88
0.502	81.16
0.505	81.33
0.508	81.39
0.511	81.65
0.514	81.81
0.517	82.08
0.52	82.06
0.523	82.19
0.526	82.56
0.529	82.49
0.532	82.63
0.535	82.82
0.538	82.86
0.541	83.13
0.544	83.1
0.547	83.27
0.55	83.51
0.553	83.62
0.556	83.69
0.559	83.6
0.562	84.2
0.565	84.24
0.568	84.31
0.571	84.12
0.574	84.1
0.577	84.14
0.58	84.16
0.583	84.24
0.586	84.03
0.589	84.33
0.592	84.39
0.595	84.29
0.598	84.51
0.601	84.59
0.604	84.64
0.607	84.66
0.61	84.67
0.613	84.62
0.616	84.7
0.619	84.63
0.622	84.68
0.625	84.73
0.628	84.74
0.631	84.8
0.634	84.8
0.637	84.67
0.64	84.71
0.643	84.74
0.646	84.86
0.649	84.79
0.652	84.77
0.655	84.85
0.658	84.85
0.661	84.81
0.664	85
0.667	84.87
0.67	84.9
0.673	85.14
0.676	85.06
0.679	85.04
0.682	85.02
0.685	85.11
0.688	85.24
0.691	85.21
0.694	85.09
0.697	85.2
0.7	85.16
0.703	84.97
0.706	85.03
0.709	85.13
0.712	85.15
0.715	85.03
0.718	85.14
0.721	85.17
0.724	85.04
0.727	85.11
0.73	85.14
0.733	85.21
0.736	85.23
0.739	85.14
0.742	85.18
0.745	85.18
0.748	85.16
0.751	85.18
0.754	85.23
0.757	84.95
0.76	85.12
0.763	85.25
0.766	85.14
0.769	85.36
0.772	85.2
0.775	85.3
0.778	85.54
0.781	85.54
0.784	85.47
0.787	85.55
0.79	85.47
0.793	85.66
0.796	85.76
0.799	85.54
0.808	85.82
0.82	85.91
0.832	85.9
0.844	85.89
0.856	85.96
0.868	86.06
0.88	85.99
0.892	86.05
0.904	85.98
0.916	85.87
0.928	85.62
0.94	85.64
0.952	85.32
0.964	84.53
0.976	84.14
0.988	84.33
1	84.8
1.012	85.32
1.024	85.68
1.036	86.08
1.048	86.15
1.06	86.25
1.072	86.43
1.084	86.32
1.096	86.24
1.108	86.35
1.12	86.45
1.132	86.22
1.144	85.35
1.156	83.78
1.168	82.64
1.18	81.76
1.192	83.25
1.204	82.95
1.216	83.29
1.228	83.24
1.24	83.07
1.252	83.23
1.264	83.38
1.276	83.69
1.288	83.71
1.3	83.44
1.312	82.48
1.324	79.61
1.336	77.2
1.348	77.1
1.36	77.46
1.372	77.49
1.384	75.91
1.396	72.88
1.408	66.91
1.42	60.58
1.432	57.25
1.444	53.84
1.456	50.55
1.468	58.84
1.48	59.38
1.492	61.37
1.504	65.39
1.516	66.73
1.528	67.18
1.54	66.62
1.552	65.8
1.564	65.77
1.576	66.11
1.588	65.9
1.6	65.78
1.612	66.26
1.624	67.09
1.636	67.86
1.648	68.9
1.66	70.08
1.672	71.02
1.684	71.91
1.696	72.41
1.708	72.71
1.72	72.94
1.732	72.36
1.744	72.18
1.756	70.37
1.768	69.11
1.78	70.52
1.792	70.5
1.804	68.95
1.816	67.97
1.828	69.13
1.84	69.92
1.852	68.93
1.864	65.61
1.876	57.81
1.888	46.67
1.9	35.93
1.912	27.31
1.924	18.48
1.936	12.8
1.948	18.21
1.96	27.56
1.972	30.92
1.984	29.61
1.996	27.47
2.008	27.19
2.02	30.11
2.032	34.76
2.044	38.78
2.056	40.43
2.068	40.38
2.08	40.5
2.092	42.56
2.104	46.25
2.116	49.47
2.128	51.02
2.14	51.26
2.152	50.51
2.164	49.67
2.176	48.41
2.188	46.69
2.2	47.2
2.212	50.56
2.224	54.44
2.236	56.63
2.248	57.55
2.26	57.39
2.272	57.07
2.284	57.44
2.296	57.68
2.308	56.84
2.32	55.28
2.332	52.99
2.344	50.91
2.356	48.64
2.368	46.09
2.38	43.68
2.392	40.36
2.404	35.22
2.416	29.98
2.428	27.2
2.44	27.19
2.452	28.7
2.464	31.21
2.476	34.34
2.488	37.25
2.5	39.31
