Name: Smithsonite PbCO_3
Type: Mineral
Class: Carbonates
Particle Size: 0-45um
Sample No.: C-11A
Owner: JPL
Wavelength Range: VNIR-SWIR
Measurement: Hemispherical reflectance
X Units: Wavelength (micrometers)
Y Units: Reflectance (percent)
wavelength	value
0.4	84.22
0.403	84.52
0.406	84.76
0.409	84.95
0.412	85.03
0.415	85.26
0.418	85.49
0.421	85.65
0.424	85.85
0.427	86
0.43	86.17
0.433	86.35
0.436	86.43
0.439	86.7
0.442	86.64
0.445	86.77
0.448	86.97
0.451	86.97
0.454	87.04
0.457	86.98
0.46	87.13
0.463	87.34
0.466	87.37
0.469	87.24
0.472	87.29
0.475	87.36
0.478	87.52
0.481	87.47
0.484	87.53
0.487	87.55
0.49	87.53
0.493	87.75
0.496	87.67
0.499	87.81
0.502	87.72
0.505	87.78
0.508	87.95
0.511	87.93
0.514	87.86
0.517	87.95
0.52	87.95
0.523	88.18
0.526	88.23
0.529	88.15
0.532	88.27
0.535	88.2
0.538	88.52
0.541	88.52
0.544	88.49
0.547	88.63
0.55	88.71
0.553	88.72
0.556	88.91
0.559	88.95
0.562	89.52
0.565	89.56
0.568	89.46
0.571	89.68
0.574	89.5
0.577	89.55
0.58	89.5
0.583	89.42
0.586	89.61
0.589	89.54
0.592	89.6
0.595	89.54
0.598	89.7
0.601	89.67
0.604	89.7
0.607	89.64
0.61	89.63
0.613	89.69
0.616	89.65
0.619	89.53
0.622	89.46
0.625	89.52
0.628	89.53
0.631	89.47
0.634	89.46
0.637	89.4
0.64	89.35
0.643	89.36
0.646	89.35
0.649	89.46
0.652	89.35
0.655	89.29
0.658	89.18
0.661	89.22
0.664	89.19
0.667	89.01
0.67	89.06
0.673	88.93
0.676	88.9
0.679	88.94
0.682	88.95
0.685	88.94
0.688	88.96
0.691	88.82
0.694	88.84
0.697	88.81
0.7	88.69
0.703	88.62
0.706	88.73
0.709	88.68
0.712	88.5
0.715	88.44
0.718	88.56
0.721	88.44
0.724	88.28
0.727	88.26
0.73	88.28
0.733	88.22
0.736	88.2
0.739	88.1
0.742	87.93
0.745	88.04
0.748	87.94
0.751	87.93
0.754	87.87
0.757	87.7
0.76	87.75
0.763	87.7
0.766	87.7
0.769	87.54
0.772	87.48
0.775	87.48
0.778	87.49
0.781	87.36
0.784	87.32
0.787	87.08
0.79	87.15
0.793	87.14
0.796	87.12
0.799	87.01
0.808	86.93
0.82	86.61
0.832	86.34
0.844	86.01
0.856	85.63
0.868	85.28
0.88	85.04
0.892	84.69
0.904	84.52
0.916	84.27
0.928	84.16
0.94	84.15
0.952	84.13
0.964	84.19
0.976	84.26
0.988	84.36
1	84.44
1.012	84.82
1.024	85.03
1.036	85.34
1.048	85.59
1.06	85.88
1.072	86.18
1.084	86.42
1.096	86.69
1.108	86.9
1.12	87.07
1.132	87.29
1.144	87.35
1.156	87.44
1.168	87.54
1.18	87.67
1.192	87.63
1.204	87.83
1.216	87.83
1.228	87.92
1.24	88.21
1.252	88.41
1.264	88.58
1.276	88.7
1.288	88.88
1.3	88.88
1.312	89.02
1.324	89.07
1.336	89.1
1.348	89.2
1.36	89.25
1.372	89.41
1.384	89.42
1.396	89.29
1.408	89.09
1.42	88.99
1.432	89.01
1.444	89.05
1.456	89.04
1.468	89.03
1.48	89.04
1.492	89.05
1.504	89.09
1.516	89.08
1.528	89.11
1.54	89.06
1.552	89.04
1.564	88.92
1.576	89
1.588	88.93
1.6	88.97
1.612	88.85
1.624	88.95
1.636	88.83
1.648	88.84
1.66	88.84
1.672	88.81
1.684	88.67
1.696	88.65
1.708	88.6
1.72	88.58
1.732	88.43
1.744	88.19
1.756	88.25
1.768	88.14
1.78	88.19
1.792	88.24
1.804	88.12
1.816	87.97
1.828	87.83
1.84	87.67
1.852	87.4
1.864	87.05
1.876	86.69
1.888	86.16
1.9	85.97
1.912	85.84
1.924	85.4
1.936	85.18
1.948	84.9
1.96	84.78
1.972	84.56
1.984	84.59
1.996	84.45
2.008	84.43
2.02	84.85
2.032	85.02
2.044	85.22
2.056	85.37
2.068	85.41
2.08	85.59
2.092	85.75
2.104	85.81
2.116	85.95
2.128	85.94
2.14	85.7
2.152	85.3
2.164	85.16
2.176	85.09
2.188	85.04
2.2	84.83
2.212	84.46
2.224	84.07
2.236	83.44
2.248	82.74
2.26	81.97
2.272	81.06
2.284	80.06
2.296	78.75
2.308	77.65
2.32	77.01
2.332	76.35
2.344	75.81
2.356	75.27
2.368	75.7
2.38	77.6
2.392	79.61
2.404	80.39
2.416	80.1
2.428	79.41
2.44	78.48
2.452	77.29
2.464	75.66
2.476	73.94
2.488	72.74
2.5	72.1
