Name: Gahnite ZnAl_2O_4
Type: Mineral
Class: Oxides
Particle Size: 45-125um
Sample No.: O-11A
Owner: JPL
Origin: Nigeria, Kaduna, Jemaa, Godogodo Mine.
Measurement: Hemispherical reflectance
X Units: Wavelength (micrometers)
Y Units: Reflectance (percent)
wavelength	value
2.5	3.73627
2.494	4.06588
2.488	3.95281
2.482	3.99995
2.476	4.0244
2.47	4.02337
2.464	3.93812
2.458	3.98428
2.452	4.05033
2.446	4.07617
2.44	3.99813
2.434	4.08976
2.428	4.07942
2.422	4.14745
2.416	4.04742
2.41	4.09957
2.404	4.07801
2.398	4.20376
2.392	4.12094
2.386	4.08427
2.38	4.22353
2.374	4.1761
2.368	4.19283
2.362	4.16437
2.356	4.18654
2.35	4.18738
2.344	4.16552
2.338	4.14475
2.332	4.14644
2.326	4.11264
2.32	4.11488
2.314	4.16677
2.308	4.15982
2.302	4.10772
2.296	4.19681
2.29	4.12234
2.284	4.08296
2.278	4.04397
2.272	4.06622
2.266	4.11776
2.26	4.06442
2.254	4.01219
2.248	3.99505
2.242	4.08242
2.236	4.04816
2.23	4.00429
2.224	3.93914
2.218	3.94119
2.212	3.99717
2.206	3.94227
2.2	3.89727
2.194	3.88145
2.188	3.87051
2.182	3.83635
2.176	3.86723
2.17	3.89492
2.164	3.81033
2.158	3.77022
2.152	3.82164
2.146	3.8136
2.14	3.83111
2.134	3.72286
2.128	3.71745
2.122	3.66953
2.116	3.65707
2.11	3.68691
2.104	3.62137
2.098	3.61346
2.092	3.61775
2.086	3.58957
2.08	3.59605
2.074	3.69522
2.068	3.63671
2.062	3.5991
2.056	3.67494
2.05	3.68552
2.044	3.63721
2.038	3.61353
2.032	3.63103
2.026	3.62584
2.02	3.72764
2.014	3.61407
2.008	3.64559
2.002	3.74244
1.996	3.67876
1.99	3.69629
1.984	3.75459
1.978	3.68474
1.972	3.71846
1.966	3.69097
1.96	3.73501
1.954	3.73422
1.948	3.69891
1.942	3.80237
1.936	3.80149
1.93	3.7307
1.924	3.74241
1.918	3.77981
1.912	3.93319
1.906	3.87339
1.9	3.93415
1.894	4.00666
1.888	4.03199
1.882	4.00427
1.876	4.04931
1.87	4.00904
1.864	4.13073
1.858	4.20053
1.852	4.22071
1.846	4.32979
1.84	4.31937
1.834	4.37221
1.828	4.42299
1.822	4.45088
1.816	4.53033
1.81	4.62957
1.804	4.76199
1.798	4.78361
1.792	4.90092
1.786	5.02411
1.78	5.1165
1.774	5.22801
1.768	5.35652
1.762	5.47167
1.756	5.59285
1.75	5.74989
1.744	5.87985
1.738	6.03458
1.732	6.25949
1.726	6.4388
1.72	6.62042
1.714	6.8233
1.708	7.02573
1.702	7.28774
1.696	7.50083
1.69	7.79153
1.684	8.09651
1.678	8.34365
1.672	8.65525
1.666	9.10715
1.66	9.43447
1.654	9.79356
1.648	10.0852
1.642	10.6181
1.636	10.9909
1.63	11.424
1.624	11.8849
1.618	12.4223
1.612	12.9525
1.606	13.4422
1.6	14.1347
1.594	14.6123
1.588	15.3371
1.582	15.9257
1.576	16.6064
1.57	17.4068
1.564	18.1048
1.558	18.7844
1.552	19.578
1.546	20.4589
1.54	21.3165
1.534	22.1108
1.528	22.9719
1.522	23.8358
1.516	24.5924
1.51	25.4225
1.504	26.3394
1.498	27.3092
1.492	28.4904
1.486	29.6544
1.48	30.7701
1.474	31.923
1.468	33.0408
1.462	34.1139
1.456	35.2032
1.45	36.2577
1.444	37.3193
1.438	38.4082
1.432	39.4063
1.426	40.554
1.42	41.7214
1.414	42.92
1.408	44.0777
1.402	45.1154
1.396	46.2921
1.39	47.3686
1.384	48.5292
1.378	49.5832
1.372	50.5915
1.366	51.552
1.36	52.5421
1.354	53.476
1.348	54.3701
1.342	55.2388
1.336	55.8486
1.33	56.5816
1.324	57.13
1.318	57.5527
1.312	57.9805
1.306	58.1883
1.3	58.5309
1.294	58.9898
1.288	59.4484
1.282	59.9798
1.276	60.6822
1.27	61.2347
1.264	61.662
1.258	61.9225
1.252	62.1743
1.246	62.4956
1.24	62.9003
1.234	63.2637
1.228	63.5837
1.222	63.9588
1.216	64.3805
1.21	65.0179
1.204	65.567
1.198	66.1551
1.192	66.6743
1.186	67.2434
1.18	67.6798
1.174	68.1097
1.168	68.496
1.162	68.7966
1.156	69.126
1.15	69.4263
1.144	69.5754
1.138	69.7284
1.132	69.8898
1.126	69.9577
1.12	70.0599
1.114	70.0038
1.108	70.0815
1.102	69.9628
1.096	69.9818
1.09	69.7595
1.084	69.6124
1.078	69.361
1.072	69.1082
1.066	68.7177
1.06	68.3339
1.054	67.8467
1.048	67.3647
1.042	66.8424
1.036	66.3149
1.03	65.6444
1.024	64.9674
1.018	64.2604
1.012	63.5332
1.006	62.7776
1	62.0706
0.994	61.2529
0.988	60.4601
0.982	59.8269
0.976	59.041
0.97	58.3137
0.964	57.8
0.958	57.2496
0.952	56.9269
0.946	56.5359
0.94	56.3136
0.934	56.089
0.928	56.0265
0.922	55.9609
0.916	55.8931
0.91	55.952
0.904	55.9347
0.898	55.9796
0.892	55.986
0.886	55.9774
0.88	56.0463
0.874	56.0311
0.868	55.9894
0.862	55.9254
0.856	56.1773
0.85	56.0657
0.844	56.0006
0.838	55.9172
0.832	55.7371
0.826	55.57
0.82	55.3578
0.814	55.1681
0.808	54.9173
0.802	54.7269
0.796	54.459
0.79	54.1813
0.784	53.9603
0.778	53.661
0.772	53.4332
0.766	53.1553
0.76	52.8495
0.754	52.4979
0.748	52.0839
0.742	51.6259
0.736	51.0721
0.73	50.4526
0.724	49.9924
0.718	49.5462
0.712	49.0697
0.706	48.5744
0.7	48.0776
0.694	47.5645
0.688	47.0975
0.682	46.6692
0.676	46.3413
0.67	46.115
0.664	45.9698
0.658	45.8118
0.652	45.4814
0.646	44.7195
0.64	43.3375
0.634	41.9314
0.628	40.9453
0.622	40.4684
0.616	40.7839
0.61	41.3745
0.604	41.0525
0.598	40.3254
0.592	39.5329
0.586	39.1016
0.58	39.1916
0.574	39.2579
0.568	39.5671
0.562	40.0153
0.556	40.2254
0.55	40.8877
0.544	41.7107
0.538	43.0136
0.532	44.8115
0.526	46.7034
0.52	48.6085
0.514	50.2332
0.508	51.1451
0.502	52.1729
0.496	52.4879
0.49	52.1475
0.484	51.1935
0.478	49.1365
0.472	47.6606
0.466	46.3555
0.46	45.0983
0.454	46.1977
0.448	47.2753
0.442	46.9611
0.436	45.6674
0.43	43.6529
0.424	41.4811
0.418	38.6309
0.412	35.783
0.406	33.5521
0.4	31.8006
