Name: Almandine Garnet Fe_3Al_2(SiO_4)_3
Type: Mineral
Class: Silicates
Subclass: Nesosilicates
Particle Size: 45-125um
Sample No.: NS-4A
Owner: JPL
Origin: USA, Arizona, Graham County, Stanley Butte.
Measurement: Hemispherical reflectance
X Units: Wavelength (micrometers)
Y Units: Reflectance (percent)
wavelength	value
2.5	30.9599
2.494	30.6249
2.488	30.43
2.482	30.4239
2.476	30.1862
2.47	30.014
2.464	30.0774
2.458	29.8511
2.452	29.7793
2.446	29.682
2.44	29.4804
2.434	29.4384
2.428	29.2992
2.422	29.2055
2.416	29.1214
2.41	28.983
2.404	28.9357
2.398	28.8102
2.392	28.7503
2.386	28.6845
2.38	28.6363
2.374	28.5797
2.368	28.5059
2.362	28.4496
2.356	28.4091
2.35	28.3556
2.344	28.2727
2.338	28.2208
2.332	28.105
2.326	28.1357
2.32	28.0196
2.314	28.0081
2.308	27.9945
2.302	27.9412
2.296	27.9317
2.29	27.9471
2.284	27.9736
2.278	27.9203
2.272	27.8886
2.266	27.8894
2.26	27.9484
2.254	28.0033
2.248	27.9606
2.242	28.0203
2.236	28.0376
2.23	28.0654
2.224	28.106
2.218	28.2763
2.212	28.4159
2.206	28.4182
2.2	28.4414
2.194	28.589
2.188	28.6807
2.182	28.7495
2.176	28.8024
2.17	28.906
2.164	29.0765
2.158	29.1829
2.152	29.3225
2.146	29.4592
2.14	29.4563
2.134	29.517
2.128	29.5179
2.122	29.5575
2.116	29.4843
2.11	29.4648
2.104	29.4866
2.098	29.4663
2.092	29.5551
2.086	29.7454
2.08	29.8051
2.074	29.8841
2.068	29.9581
2.062	30.0303
2.056	30.1094
2.05	30.2971
2.044	30.2852
2.038	30.3859
2.032	30.4636
2.026	30.5009
2.02	30.5656
2.014	30.6476
2.008	30.62
2.002	30.6686
1.996	30.7348
1.99	30.6712
1.984	30.7394
1.978	30.7048
1.972	30.7275
1.966	30.6893
1.96	30.659
1.954	30.6452
1.948	30.6761
1.942	30.6823
1.936	30.523
1.93	30.5158
1.924	30.5374
1.918	30.5454
1.912	30.3985
1.906	30.4228
1.9	30.3379
1.894	30.2816
1.888	30.1757
1.882	30.1207
1.876	30.0613
1.87	29.9077
1.864	29.8009
1.858	29.6025
1.852	29.5317
1.846	29.3767
1.84	29.2402
1.834	29.1034
1.828	28.9534
1.822	28.7998
1.816	28.629
1.81	28.5067
1.804	28.368
1.798	28.1978
1.792	28.0211
1.786	27.9392
1.78	27.6694
1.774	27.58
1.768	27.4296
1.762	27.2902
1.756	27.1668
1.75	27.0015
1.744	26.9364
1.738	26.8301
1.732	26.6654
1.726	26.5887
1.72	26.5628
1.714	26.4915
1.708	26.4123
1.702	26.3568
1.696	26.2803
1.69	26.1581
1.684	26.2412
1.678	26.1543
1.672	26.1802
1.666	26.1486
1.66	26.1608
1.654	26.2586
1.648	26.2033
1.642	26.3133
1.636	26.2481
1.63	26.409
1.624	26.4666
1.618	26.5666
1.612	26.6016
1.606	26.7347
1.6	26.8229
1.594	26.9645
1.588	27.0152
1.582	27.0677
1.576	27.245
1.57	27.3291
1.564	27.3763
1.558	27.5238
1.552	27.5598
1.546	27.6582
1.54	27.7152
1.534	27.8375
1.528	27.8428
1.522	27.9135
1.516	27.9021
1.51	27.924
1.504	27.8979
1.498	27.9078
1.492	27.8547
1.486	27.7344
1.48	27.6507
1.474	27.5762
1.468	27.3704
1.462	27.2127
1.456	27.0327
1.45	26.7841
1.444	26.5642
1.438	26.3059
1.432	26.0389
1.426	25.7484
1.42	25.4007
1.414	25.0679
1.408	24.7289
1.402	24.4576
1.396	24.0957
1.39	23.8095
1.384	23.3684
1.378	23.0761
1.372	22.703
1.366	22.3631
1.36	22.0207
1.354	21.739
1.348	21.4188
1.342	21.1566
1.336	20.8922
1.33	20.6171
1.324	20.4404
1.318	20.2591
1.312	20.1997
1.306	20.0393
1.3	20.0085
1.294	19.8892
1.288	19.9876
1.282	19.892
1.276	19.9944
1.27	20.0455
1.264	20.1988
1.258	20.3154
1.252	20.5044
1.246	20.6795
1.24	20.9201
1.234	21.2043
1.228	21.5276
1.222	21.8396
1.216	22.2403
1.21	22.5327
1.204	23.045
1.198	23.5162
1.192	24.0192
1.186	24.4887
1.18	25.093
1.174	25.7109
1.168	26.2388
1.162	26.8865
1.156	27.563
1.15	28.273
1.144	28.9835
1.138	29.7357
1.132	30.6416
1.126	31.3237
1.12	32.1263
1.114	32.9638
1.108	33.7856
1.102	34.6445
1.096	35.4748
1.09	36.2676
1.084	37.164
1.078	38.0017
1.072	38.8311
1.066	39.701
1.06	40.3982
1.054	41.1777
1.048	41.8257
1.042	42.5595
1.036	43.2262
1.03	43.8876
1.024	44.4634
1.018	44.9818
1.012	45.5322
1.006	46.0176
1	46.4732
0.994	46.7888
0.988	47.0813
0.982	47.4565
0.976	47.7551
0.97	47.8849
0.964	48.1794
0.958	48.3965
0.952	48.5518
0.946	48.6859
0.94	48.7781
0.934	48.9077
0.928	49.003
0.922	49.0683
0.916	49.1513
0.91	49.1384
0.904	49.1757
0.898	49.1497
0.892	49.2547
0.886	49.1991
0.88	49.2522
0.874	49.2981
0.868	49.2596
0.862	49.2908
0.856	49.3551
0.85	49.3584
0.844	49.4537
0.838	49.4041
0.832	49.4704
0.826	49.4371
0.82	49.3807
0.814	49.3135
0.808	49.2941
0.802	49.2154
0.796	49.1779
0.79	49.007
0.784	48.8368
0.778	48.668
0.772	48.4535
0.766	48.1979
0.76	47.8858
0.754	47.5212
0.748	47.1421
0.742	46.7229
0.736	46.2526
0.73	45.7514
0.724	45.2745
0.718	44.8301
0.712	44.3915
0.706	44.0425
0.7	43.7653
0.694	43.5829
0.688	43.4942
0.682	43.4888
0.676	43.5211
0.67	43.578
0.664	43.6161
0.658	43.5853
0.652	43.4298
0.646	43.1037
0.64	42.5897
0.634	41.8724
0.628	40.9919
0.622	40.1111
0.616	39.3846
0.61	38.8025
0.604	38.285
0.598	37.6347
0.592	36.7291
0.586	35.4671
0.58	34.0393
0.574	32.9146
0.568	32.506
0.562	32.5588
0.556	32.5536
0.55	32.2776
0.544	31.6607
0.538	30.63
0.532	29.436
0.526	28.3651
0.52	27.6907
0.514	27.1686
0.508	26.1632
0.502	25.4532
0.496	25.7226
0.49	26.1054
0.484	26.4599
0.478	26.5212
0.472	26.3794
0.466	26.2574
0.46	26.0574
0.454	26.0512
0.448	26.0513
0.442	25.757
0.436	25.0826
0.43	24.4635
0.424	24.3817
0.418	24.5349
0.412	24.5624
0.406	24.5015
0.4	24.2316
