Name: Oil Shale (Kerogen Shale)
Type: Rock
Class: Sedimentary
Subclass: Shale
Particle Size: Solid surface
Sample No.: Ward55.txt
Owner: JPL
Origin: Ward's Collection of American Rocks.  Sample locality - Garfield County, Colorado.
Description: A blackish brown stratified shale.   It emits a strong
Measurement: Hemispherical reflectance
X Units: Wavelength (micrometers)
Y Units: Reflectance (percent)
wavelength	value
2.5	13.891
2.494	13.6889
2.488	13.9822
2.482	13.8232
2.476	13.7383
2.47	13.9126
2.464	13.8878
2.458	14.0184
2.452	14.1303
2.446	14.1981
2.44	14.3132
2.434	14.3924
2.428	14.3834
2.422	14.3656
2.416	14.4857
2.41	14.3914
2.404	14.2175
2.398	14.297
2.392	14.377
2.386	14.3945
2.38	14.3817
2.374	14.4298
2.368	14.4327
2.362	14.2891
2.356	14.045
2.35	13.7542
2.344	13.7887
2.338	14.0093
2.332	14.4247
2.326	14.4953
2.32	14.2762
2.314	13.8092
2.308	13.3721
2.302	13.3875
2.296	13.893
2.29	14.7109
2.284	15.375
2.278	16.0547
2.272	16.8016
2.266	17.5174
2.26	18.4046
2.254	19.2071
2.248	19.8945
2.242	20.4388
2.236	20.7636
2.23	21.1523
2.224	21.1844
2.218	21.3565
2.212	21.5082
2.206	21.5145
2.2	21.5945
2.194	21.6515
2.188	21.7857
2.182	21.9017
2.176	21.8774
2.17	21.9345
2.164	22.021
2.158	22.0989
2.152	22.1171
2.146	22.1569
2.14	22.2632
2.134	22.3372
2.128	22.3374
2.122	22.3399
2.116	22.3973
2.11	22.4315
2.104	22.4943
2.098	22.6729
2.092	22.8784
2.086	23.0469
2.08	23.2009
2.074	23.2568
2.068	23.4533
2.062	23.5317
2.056	23.5486
2.05	23.6039
2.044	23.6914
2.038	23.7227
2.032	23.7382
2.026	23.8227
2.02	23.8125
2.014	23.783
2.008	23.8145
2.002	23.8631
1.996	23.9868
1.99	23.959
1.984	23.99
1.978	23.9778
1.972	23.9922
1.966	23.9466
1.96	23.9058
1.954	23.8331
1.948	23.7374
1.942	23.6881
1.936	23.687
1.93	23.5361
1.924	23.4717
1.918	23.3266
1.912	23.1757
1.906	23.3949
1.9	24.0176
1.894	24.5206
1.888	25.1031
1.882	25.4901
1.876	25.756
1.87	25.6768
1.864	25.8262
1.858	25.7933
1.852	25.8364
1.846	25.745
1.84	25.7462
1.834	25.6203
1.828	25.6655
1.822	25.6395
1.816	25.5486
1.81	25.551
1.804	25.5219
1.798	25.4982
1.792	25.4486
1.786	25.3699
1.78	25.1756
1.774	24.84
1.768	24.4519
1.762	24.176
1.756	24.1882
1.75	24.3959
1.744	24.4139
1.738	24.18
1.732	23.6212
1.726	23.43
1.72	23.6286
1.714	23.9295
1.708	24.3112
1.702	24.7856
1.696	25.2467
1.69	25.5888
1.684	25.9867
1.678	26.2485
1.672	26.4315
1.666	26.5406
1.66	26.6353
1.654	26.723
1.648	26.7845
1.642	26.8188
1.636	26.7518
1.63	26.8824
1.624	26.7483
1.618	26.7899
1.612	26.7853
1.606	26.801
1.6	26.7088
1.594	26.7366
1.588	26.6513
1.582	26.5691
1.576	26.5516
1.57	26.5593
1.564	26.4641
1.558	26.468
1.552	26.3928
1.546	26.347
1.54	26.3406
1.534	26.3583
1.528	26.1997
1.522	26.208
1.516	26.1429
1.51	26.0866
1.504	26.02
1.498	25.9426
1.492	25.8633
1.486	25.8228
1.48	25.6955
1.474	25.6062
1.468	25.5904
1.462	25.55
1.456	25.5348
1.45	25.3662
1.444	25.3177
1.438	25.149
1.432	25.1206
1.426	24.9093
1.42	24.6936
1.414	24.6877
1.408	24.8063
1.402	24.971
1.396	24.8962
1.39	25.0054
1.384	25.0051
1.378	25.0671
1.372	24.9607
1.366	24.928
1.36	24.9386
1.354	24.6661
1.348	24.7987
1.342	24.7989
1.336	24.7854
1.33	24.7431
1.324	24.598
1.318	24.574
1.312	24.4652
1.306	24.3835
1.3	24.3649
1.294	24.2991
1.288	24.1807
1.282	24.119
1.276	24.0533
1.27	23.9704
1.264	23.9123
1.258	23.7946
1.252	23.735
1.246	23.6368
1.24	23.5016
1.234	23.3727
1.228	23.3047
1.222	23.1458
1.216	22.9737
1.21	22.8872
1.204	22.8778
1.198	22.7666
1.192	22.7493
1.186	22.6917
1.18	22.7023
1.174	22.6252
1.168	22.5919
1.162	22.4582
1.156	22.456
1.15	22.3427
1.144	22.2904
1.138	22.2797
1.132	22.1398
1.126	22.066
1.12	22.0121
1.114	21.8673
1.108	21.8136
1.102	21.6954
1.096	21.6844
1.09	21.5935
1.084	21.4743
1.078	21.3201
1.072	21.3229
1.066	21.2159
1.06	21.1068
1.054	21.1547
1.048	20.9497
1.042	20.8633
1.036	20.7414
1.03	20.6865
1.024	20.6088
1.018	20.5199
1.012	20.4367
1.006	20.3052
1	20.2275
0.994	20.1778
0.988	20.038
0.982	19.9047
0.976	19.8499
0.97	19.6656
0.964	19.5427
0.958	19.3981
0.952	19.3432
0.946	19.1985
0.94	19.0574
0.934	19.015
0.928	18.7837
0.922	18.6916
0.916	18.5688
0.91	18.4222
0.904	18.3161
0.898	18.1702
0.892	18.0072
0.886	17.9482
0.88	17.7707
0.874	17.6126
0.868	17.5812
0.862	17.3323
0.856	17.4433
0.85	17.3093
0.844	17.1594
0.838	17.0268
0.832	16.8872
0.826	16.7139
0.82	16.5442
0.814	16.3745
0.808	16.1971
0.802	16.0308
0.796	15.8386
0.79	15.6501
0.784	15.4714
0.778	15.29
0.772	15.1004
0.766	14.9159
0.76	14.7328
0.754	14.5615
0.748	14.3745
0.742	14.1938
0.736	14.0093
0.73	13.8339
0.724	13.6563
0.718	13.4793
0.712	13.3011
0.706	13.1256
0.7	12.9449
0.694	12.7681
0.688	12.589
0.682	12.4148
0.676	12.2366
0.67	12.062
0.664	11.8841
0.658	11.7036
0.652	11.5273
0.646	11.3432
0.64	11.1717
0.634	11.01
0.628	10.8519
0.622	10.7005
0.616	10.5576
0.61	10.4164
0.604	10.2766
0.598	10.1436
0.592	10.0132
0.586	9.87557
0.58	9.74719
0.574	9.61821
0.568	9.48498
0.562	9.35182
0.556	9.17812
0.55	9.0554
0.544	8.94983
0.538	8.83194
0.532	8.71522
0.526	8.61694
0.52	8.50167
0.514	8.38078
0.508	8.25138
0.502	8.12104
0.496	7.98137
0.49	7.83986
0.484	7.69203
0.478	7.61947
0.472	7.52598
0.466	7.43309
0.46	7.33742
0.454	7.23225
0.448	7.12071
0.442	7.0061
0.436	6.91101
0.43	6.81203
0.424	6.71518
0.418	6.63511
0.412	6.56641
0.406	6.51047
0.4	6.47519
