Name: Apatite Ca_5(PO_4)_3F
Type: Mineral
Class: Phosphates
Particle Size: 45-125um
Sample No.: P-1A
Owner: JPL
Wavelength Range: VNIR-SWIR
Origin: Canada, Ontario, Lanark County, Perth
Measurement: Hemispherical reflectance
X Units: Wavelength (micrometers)
Y Units: Reflectance (percent)
wavelength	value
0.4	46.6
0.403	47.86
0.406	49.15
0.409	50.38
0.412	51.62
0.415	52.73
0.418	53.7
0.421	54.68
0.424	55.88
0.427	56.9
0.43	57.82
0.433	58.63
0.436	59.43
0.439	60.34
0.442	60.97
0.445	61.51
0.448	61.96
0.451	62.5
0.454	63.16
0.457	63.53
0.46	63.71
0.463	64.12
0.466	64.4
0.469	64.77
0.472	65.07
0.475	65.39
0.478	65.7
0.481	65.9
0.484	66.32
0.487	66.61
0.49	66.69
0.493	66.89
0.496	67.01
0.499	67.43
0.502	67.51
0.505	67.57
0.508	67.73
0.511	67.89
0.514	68.05
0.517	68.17
0.52	68.19
0.523	68
0.526	68.2
0.529	68.05
0.532	68.29
0.535	68.23
0.538	68.21
0.541	68.41
0.544	68.35
0.547	68.3
0.55	68.21
0.553	68.06
0.556	68.1
0.559	68.11
0.562	68.12
0.565	68.11
0.568	67.79
0.571	67.41
0.574	66.49
0.577	66.43
0.58	66.41
0.583	66.17
0.586	66.27
0.589	66.24
0.592	66.44
0.595	66.73
0.598	66.44
0.601	66.6
0.604	66.47
0.607	66.5
0.61	66.37
0.613	66.27
0.616	66.3
0.619	65.99
0.622	66.03
0.625	65.94
0.628	65.83
0.631	65.85
0.634	65.68
0.637	65.61
0.64	65.48
0.643	65.45
0.646	65.48
0.649	65.33
0.652	65.36
0.655	65.23
0.658	65.36
0.661	65.31
0.664	65.19
0.667	65.24
0.67	65.15
0.673	65.11
0.676	65.15
0.679	65.03
0.682	64.99
0.685	65.05
0.688	65.13
0.691	65.09
0.694	65.01
0.697	65.09
0.7	64.98
0.703	65.16
0.706	65.27
0.709	65.25
0.712	65.46
0.715	65.37
0.718	65.46
0.721	65.59
0.724	65.5
0.727	65.6
0.73	65.54
0.733	65.42
0.736	65.28
0.739	65.17
0.742	65.46
0.745	65.23
0.748	65.3
0.751	65.51
0.754	65.67
0.757	66.06
0.76	66.19
0.763	66.34
0.766	66.39
0.769	66.47
0.772	66.64
0.775	66.91
0.778	66.99
0.781	66.93
0.784	67.03
0.787	67.11
0.79	67.23
0.793	67.22
0.796	67.03
0.799	66.81
0.808	68.41
0.82	69.02
0.832	69.63
0.844	70.23
0.856	70.67
0.868	71.09
0.88	71.55
0.892	72.23
0.904	72.77
0.916	73.23
0.928	73.86
0.94	74.38
0.952	74.89
0.964	75.37
0.976	75.85
0.988	76.28
1	76.82
1.012	77.13
1.024	77.5
1.036	77.84
1.048	78.04
1.06	78.42
1.072	78.69
1.084	79.02
1.096	79.33
1.108	79.61
1.12	79.98
1.132	80.23
1.144	80.41
1.156	80.67
1.168	80.95
1.18	81.23
1.192	81.45
1.204	81.74
1.216	81.83
1.228	81.86
1.24	82.05
1.252	82.33
1.264	82.45
1.276	82.7
1.288	82.93
1.3	83.01
1.312	83.06
1.324	83.12
1.336	83.23
1.348	83.21
1.36	83.35
1.372	83.19
1.384	80.6
1.396	82.05
1.408	81.78
1.42	81.73
1.432	81.65
1.444	82.29
1.456	82.67
1.468	82.95
1.48	83.2
1.492	83.3
1.504	83.53
1.516	83.82
1.528	83.79
1.54	83.88
1.552	84.18
1.564	84.23
1.576	84.29
1.588	84.49
1.6	84.77
1.612	84.8
1.624	84.96
1.636	85.07
1.648	85.24
1.66	85.36
1.672	85.29
1.684	85.3
1.696	85.41
1.708	85.25
1.72	85.28
1.732	85.18
1.744	85.1
1.756	84.99
1.768	85.06
1.78	85.03
1.792	85.1
1.804	85.09
1.816	84.9
1.828	84.77
1.84	84.56
1.852	84.16
1.864	83.49
1.876	82.47
1.888	80.27
1.9	77.96
1.912	77.54
1.924	78.03
1.936	78.41
1.948	78.55
1.96	78.75
1.972	78.67
1.984	78.08
1.996	78.04
2.008	79.75
2.02	81.3
2.032	82.22
2.044	82.74
2.056	83.11
2.068	83.5
2.08	83.63
2.092	83.79
2.104	83.93
2.116	83.99
2.128	83.55
2.14	82.94
2.152	82.44
2.164	82.56
2.176	82.82
2.188	83
2.2	83.08
2.212	82.93
2.224	82.84
2.236	82.63
2.248	82.33
2.26	81.7
2.272	80.48
2.284	78.86
2.296	77.31
2.308	76.54
2.32	76.96
2.332	77.79
2.344	78.49
2.356	79.09
2.368	79.19
2.38	78.75
2.392	78.63
2.404	78.79
2.416	78.5
2.428	77.87
2.44	77.23
2.452	76.47
2.464	75.53
2.476	74.61
2.488	74.1
2.5	73.54
