Name: Diabase Porphyry
Type: Rock
Class: Igneous
Subclass: Mafic
Particle Size: Solid surface
Sample No.: Ward38.txt
Owner: JPL
Origin: Ward's Collection of American Rocks.  Sample locality - Cape Ann, Essex County, Massachusetts.
Description: A porphyritic rock consisting of large greenish-gray
Measurement: Hemispherical reflectance
X Units: Wavelength (micrometers)
Y Units: Reflectance (percent)
wavelength	value
15.3871	4.58823
15.118	3.49345
14.8581	3.55051
14.6069	3.68776
14.3642	4.07122
14.1293	4.36804
13.9021	4.67169
13.682	4.58511
13.4687	4.85563
13.2621	4.50091
13.0616	3.9285
12.8672	4.09036
12.6784	4.04754
12.4951	4.00909
12.317	4.74237
12.1439	5.2797
11.9757	5.84096
11.812	6.43816
11.6527	7.07067
11.4977	7.5607
11.3468	8.59372
11.1997	9.55699
11.0564	10.6932
10.9168	11.9825
10.7806	12.7803
10.6478	13.8823
10.5182	15.0127
10.3917	15.4391
10.2683	16.2961
10.1477	17.8356
10.0299	19.037
9.9148	19.632
9.8024	17.4826
9.6925	17.4677
9.585	16.6814
9.4798	13.9344
9.377	12.4205
9.2763	11.0457
9.1778	10.6618
9.0814	10.5337
8.987	10.7727
8.8945	10.6765
8.8039	11.4956
8.7151	11.5033
8.6281	10.6014
8.5428	9.84574
8.4592	9.33266
8.3772	8.91008
8.2967	7.03614
8.2179	4.43733
8.1404	2.8452
8.0645	1.94771
7.9899	1.48363
7.9167	1.32323
7.8449	1.37066
7.7743	1.29546
7.705	1.45545
7.6369	1.42093
7.57	1.44422
7.5043	1.55231
7.4397	1.56376
7.3762	1.66291
7.3138	1.81397
7.2524	1.83779
7.1921	1.95526
7.1327	2.07145
7.0743	2.13398
7.0169	2.23059
6.9604	2.2916
6.9047	2.20122
6.85	2.29239
6.7962	2.33056
6.7431	2.5315
6.6909	2.59043
6.6395	2.64527
6.5889	2.68529
6.539	2.77673
6.49	2.73273
6.4416	2.73588
6.3939	2.86686
6.347	2.79077
6.3007	2.7802
6.2551	2.94316
6.2101	2.8217
6.1658	2.96259
6.1222	2.9114
6.0791	2.87931
6.0366	3.15116
5.9948	3.01975
5.9535	2.99199
5.9127	2.97287
5.8726	3.06407
5.8329	3.08957
5.7938	3.20703
5.7552	3.2062
5.7172	3.10997
5.6796	3.41419
5.6425	3.47523
5.6059	3.53989
5.5698	3.55481
5.5341	3.65272
5.4989	3.67558
5.4641	3.8544
5.4298	3.87578
5.3959	3.99529
5.3624	4.03459
5.3294	4.1282
5.2967	4.08602
5.2644	4.24711
5.2326	4.37378
5.2011	4.33487
5.17	4.42228
5.1392	4.56303
5.1088	4.66189
5.0788	4.68808
5.0491	4.8659
5.0198	4.95916
4.9908	5.00188
4.9622	5.14286
4.9338	5.247
4.9058	5.40224
4.8781	5.4261
4.8508	5.57251
4.8237	5.59764
4.7969	5.61406
4.7704	5.81839
4.7443	5.87407
4.7184	6.03663
4.6927	6.13202
4.6674	6.3807
4.6423	6.60378
4.6175	6.6878
4.593	6.99866
4.5687	7.21679
4.5447	7.4087
4.5209	7.6185
4.4974	7.97182
4.4741	8.16108
4.451	8.44652
4.4282	8.74512
4.4057	8.8119
4.3833	9.12986
4.3612	9.33199
4.3393	9.62305
4.3176	9.96021
4.2962	9.98653
4.2749	10.2286
4.2539	10.6242
4.233	10.6291
4.2124	10.888
4.192	11.0354
4.1717	11.1954
4.1517	11.3358
4.1319	11.5073
4.1122	11.5224
4.0927	11.5912
4.0734	11.5919
4.0543	11.6967
4.0354	11.7522
4.0166	11.7581
3.9981	11.6997
3.9796	11.8585
3.9614	11.8476
3.9433	11.9337
3.9254	11.948
3.9077	11.9904
3.8901	12.1615
3.8726	12.0313
3.8554	12.1117
3.8382	12.1544
3.8213	11.948
3.8045	11.9043
3.7878	11.9373
3.7713	11.9343
3.7549	11.9187
3.7386	11.8072
3.7225	11.9002
3.7066	11.6807
3.6907	11.6385
3.675	11.431
3.6595	11.2919
3.644	11.159
3.6287	11.232
3.6136	10.965
3.5985	11.032
3.5836	10.7506
3.5688	10.6231
3.5541	10.4566
3.5396	10.1479
3.5251	10.0797
3.5108	9.84361
3.4966	9.6503
3.4825	9.57674
3.4685	9.23059
3.4547	9.31024
3.4409	9.26854
3.4273	8.90613
3.4137	8.86408
3.4003	8.85577
3.387	8.57265
3.3738	8.61862
3.3606	8.37257
3.3476	8.43895
3.3347	8.49123
3.3219	8.27836
3.3092	8.1635
3.2965	7.92449
3.284	7.893
3.2716	8.05674
3.2593	7.85209
3.247	7.71546
3.2348	7.77736
3.2228	7.53905
3.2108	7.47774
3.1989	7.34588
3.1871	7.24512
3.1754	7.30318
3.1638	6.96954
3.1523	6.8383
3.1408	6.79523
3.1294	7.02923
3.1181	6.59632
3.1069	6.59915
3.0958	6.546
3.0848	6.77337
3.0738	6.70783
3.0629	6.24814
3.0521	6.79417
3.0413	6.59914
3.0307	6.9122
3.0201	6.10376
3.0096	6.45107
2.9991	6.37471
2.9887	6.61294
2.9784	6.18995
2.9682	6.49175
2.9581	6.35095
2.948	6.19531
2.9379	6.53867
2.928	6.81665
2.9181	6.31696
2.9083	6.002
2.8985	5.80052
2.8888	6.70236
2.8792	6.40618
2.8697	6.81685
2.8602	6.56029
2.8507	6.52098
2.8413	6.79507
2.832	6.35557
2.8228	6.19186
2.8136	6.24476
2.8045	6.87206
2.7954	7.44434
2.7864	6.91074
2.7774	6.46763
2.7685	6.42342
2.7597	6.89767
2.7509	7.36655
2.7422	6.82501
2.7335	7.22599
2.7249	7.80381
2.7163	8.3852
2.7078	9.23402
2.6994	10.4395
2.691	13.0276
2.6826	14.9678
2.6743	16.045
2.666	16.7773
2.6578	17.0825
2.6497	17.3219
2.6416	17.7324
2.6336	17.77
2.6256	18.0925
2.6176	17.5205
2.6097	18.0157
2.6018	18.4334
2.594	18.4886
2.5863	18.3993
2.5785	18.5561
2.5709	18.4964
2.5633	18.8861
2.5557	19.2145
2.5481	18.9612
2.5406	18.8349
2.5332	19.0273
2.5258	18.623
2.5184	18.6932
2.5111	18.8583
2.5038	18.7501
2.4966	18.7652
2.4894	18.8305
2.4823	19.1654
2.4752	18.8023
2.4681	18.6979
2.4611	19.4651
2.4541	19.3902
2.4471	18.8964
2.4402	19.3949
2.4333	19.2663
2.4265	19.6595
2.4197	19.3055
2.413	19.0239
2.4063	19.7081
2.3996	19.5693
2.3929	19.3048
2.3863	19.3177
2.3798	19.253
2.3732	19.5848
2.3667	19.3655
2.3603	19.1272
2.3538	19.5849
2.3474	18.8128
2.3411	18.9222
2.3347	19.5416
2.3285	19.6415
2.3222	20.2601
2.316	20.3803
2.3098	20.0938
2.3036	20.794
2.2975	20.1797
2.2914	20.4451
2.2854	20.8152
2.2793	20.3397
2.2733	21.1386
2.2674	20.4121
2.2614	21.2196
2.2555	20.9807
2.2497	21.0976
2.2438	21.281
2.238	20.9749
2.2322	21.8133
2.2265	20.6554
2.2208	21.2444
2.2151	20.9842
2.2094	20.4162
2.2038	20.6248
2.1982	20.5375
2.1926	20.7451
2.187	20.8124
2.1815	20.9974
2.176	21.5542
2.1706	21.2854
2.1651	21.3166
2.1597	21.6271
2.1543	22.1294
2.149	22.5034
2.1436	21.3142
2.1383	20.9754
2.1331	22.5826
2.1278	21.9277
2.1226	21.7471
2.1174	22.4429
2.1122	23.2405
2.1071	22.5758
2.1019	21.704
2.0968	21.0367
2.0918	22.3131
2.0867	21.1934
2.0817	21.9291
2.0767	22.408
2.0717	21.8294
2.0667	21.7196
2.0618	22.3262
2.0569	21.6779
2.052	21.6413
2.0472	21.9984
2.0423	22.4737
2.0375	21.7865
2.0327	23.2558
2.028	22.2196
2.0232	21.0244
2.0185	22.0833
2.0138	20.7443
2.0091	22.4123
2.0044	21.8465
1.9998	21.9194
