Name: Arsenopyrite FeAsS
Type: Mineral
Class: Sulfides
Particle Size: 45-125um
Sample No.: S-5A
Owner: JPL
Wavelength Range: VNIR-SWIR
Origin: USA, Nevada, Lander County, Austin
Measurement: Hemispherical reflectance
X Units: Wavelength (micrometers)
Y Units: Reflectance (percent)
wavelength	value
0.4	12.29
0.403	12.25
0.406	12.35
0.409	12.36
0.412	12.43
0.415	12.4
0.418	12.43
0.421	12.47
0.424	12.55
0.427	12.55
0.43	12.6
0.433	12.61
0.436	12.67
0.439	12.75
0.442	12.79
0.445	12.63
0.448	12.82
0.451	12.73
0.454	12.84
0.457	12.82
0.46	12.77
0.463	12.82
0.466	12.92
0.469	12.82
0.472	13.08
0.475	13.04
0.478	12.93
0.481	13.01
0.484	13.13
0.487	13.14
0.49	13.16
0.493	13.11
0.496	13.1
0.499	13.24
0.502	13.33
0.505	13.21
0.508	13.3
0.511	13.31
0.514	13.4
0.517	13.4
0.52	13.35
0.523	13.35
0.526	13.49
0.529	13.43
0.532	13.42
0.535	13.37
0.538	13.51
0.541	13.54
0.544	13.56
0.547	13.45
0.55	13.55
0.553	13.61
0.556	13.61
0.559	13.57
0.562	13.7
0.565	13.68
0.568	13.69
0.571	13.71
0.574	13.62
0.577	13.64
0.58	13.72
0.583	13.67
0.586	13.69
0.589	13.68
0.592	13.69
0.595	13.77
0.598	13.71
0.601	13.83
0.604	13.76
0.607	13.79
0.61	13.78
0.613	13.85
0.616	13.85
0.619	13.79
0.622	13.76
0.625	13.84
0.628	13.83
0.631	13.82
0.634	13.87
0.637	13.81
0.64	13.83
0.643	13.93
0.646	13.82
0.649	13.89
0.652	13.78
0.655	13.9
0.658	13.83
0.661	13.85
0.664	13.83
0.667	13.81
0.67	14.05
0.673	13.96
0.676	13.94
0.679	13.93
0.682	13.89
0.685	13.99
0.688	13.99
0.691	13.95
0.694	13.89
0.697	13.96
0.7	13.96
0.703	13.91
0.706	13.93
0.709	13.91
0.712	14
0.715	14.05
0.718	13.88
0.721	13.9
0.724	13.93
0.727	14.01
0.73	14.04
0.733	13.93
0.736	13.93
0.739	13.97
0.742	13.97
0.745	14.03
0.748	13.92
0.751	13.88
0.754	13.92
0.757	13.97
0.76	14.02
0.763	13.88
0.766	13.94
0.769	13.93
0.772	14
0.775	14.08
0.778	13.99
0.781	14.11
0.784	14.27
0.787	14.18
0.79	14.32
0.793	14.22
0.796	14.2
0.799	14.2
0.808	14.19
0.82	14.17
0.832	14.19
0.844	14.19
0.856	14.14
0.868	14.17
0.88	14.16
0.892	14.16
0.904	14.22
0.916	14.2
0.928	14.15
0.94	14.17
0.952	14.16
0.964	14.17
0.976	14.09
0.988	14.13
1	14.07
1.012	14.08
1.024	14.05
1.036	14.03
1.048	13.98
1.06	13.99
1.072	13.93
1.084	14
1.096	13.99
1.108	13.99
1.12	14.05
1.132	14.07
1.144	14
1.156	14.02
1.168	14.11
1.18	14.04
1.192	14.08
1.204	14.09
1.216	14.12
1.228	14.16
1.24	14.06
1.252	14.1
1.264	14.11
1.276	14.15
1.288	14.14
1.3	14.15
1.312	14.2
1.324	14.19
1.336	14.24
1.348	14.21
1.36	14.22
1.372	14.29
1.384	14.2
1.396	14.25
1.408	14.24
1.42	14.26
1.432	14.33
1.444	14.31
1.456	14.28
1.468	14.39
1.48	14.35
1.492	14.44
1.504	14.4
1.516	14.48
1.528	14.43
1.54	14.46
1.552	14.5
1.564	14.55
1.576	14.55
1.588	14.6
1.6	14.6
1.612	14.48
1.624	14.49
1.636	14.59
1.648	14.56
1.66	14.61
1.672	14.61
1.684	14.64
1.696	14.6
1.708	14.64
1.72	14.59
1.732	14.67
1.744	14.64
1.756	14.64
1.768	14.6
1.78	14.71
1.792	14.69
1.804	14.67
1.816	14.67
1.828	14.59
1.84	14.63
1.852	14.61
1.864	14.63
1.876	14.61
1.888	14.61
1.9	14.64
1.912	14.58
1.924	14.52
1.936	14.6
1.948	14.65
1.96	14.61
1.972	14.59
1.984	14.73
1.996	14.68
2.008	14.81
2.02	14.79
2.032	14.8
2.044	14.82
2.056	14.81
2.068	14.88
2.08	14.85
2.092	14.86
2.104	14.82
2.116	14.84
2.128	14.86
2.14	14.85
2.152	14.8
2.164	14.79
2.176	14.77
2.188	14.76
2.2	14.68
2.212	14.66
2.224	14.73
2.236	14.82
2.248	14.83
2.26	14.85
2.272	14.72
2.284	14.75
2.296	14.78
2.308	14.77
2.32	14.78
2.332	14.91
2.344	14.88
2.356	14.84
2.368	14.88
2.38	14.82
2.392	14.77
2.404	14.87
2.416	14.83
2.428	14.88
2.44	14.77
2.452	14.8
2.464	14.82
2.476	14.8
2.488	14.84
2.5	15.01
