Name: Ultra Flat Black Paint
Type: Manmade materials
Class: General Construction Materials
Subclass: Paints
Particle Size: Solid
Sample No.: 1602
Owner: JPL
Origin: The Sherwin-Williams Co., Solon, OH 44139
Description: Ultra flat black interior/exterior spray paint.
Measurement: Hemispherical reflectance
X Units: Wavelength (micrometers)
Y Units: Reflectance (percent)
wavelength	value
14.0131	4.81342
13.7895	5.07033
13.5729	4.75214
13.363	5.10143
13.1595	4.56869
12.9621	4.69437
12.7705	4.74997
12.5845	4.49245
12.4039	4.48267
12.2284	4.6641
12.0578	4.78851
11.8918	4.84007
11.7304	4.66029
11.5733	4.75731
11.4203	4.69847
11.2714	4.71847
11.1263	4.77619
10.9848	4.80764
10.8469	4.70442
10.7125	4.84348
10.5813	4.78149
10.4533	4.73045
10.3284	4.79109
10.2064	5.0238
10.0872	4.94767
9.97084	4.99449
9.8571	4.98157
9.74592	5.01646
9.63724	4.79418
9.53094	5.05641
9.42697	5.00505
9.32524	4.92752
9.22568	4.95421
9.12823	5.02777
9.03281	4.90773
8.93937	4.99034
8.84784	5.25256
8.75816	5.22374
8.67029	5.12752
8.58416	4.39189
8.49973	4.23022
8.41693	3.64351
8.33574	3.12004
8.2561	3.20431
8.17797	3.45415
8.10131	3.46193
8.02606	3.1855
7.9522	3.15996
7.87969	3.16695
7.80849	3.11725
7.73856	3.13099
7.66987	3.19165
7.60239	3.28195
7.5361	3.43084
7.47094	3.39157
7.4069	3.57599
7.34396	3.70446
7.28207	3.75295
7.22122	3.43601
7.16137	3.43935
7.10251	3.65441
7.04461	3.85204
6.98765	3.83278
6.9316	3.76277
6.87644	3.42839
6.82215	3.30113
6.76871	3.40617
6.71611	3.37804
6.66431	3.50982
6.61331	3.73724
6.56308	3.67249
6.51361	3.82895
6.46488	3.86129
6.41687	3.74855
6.36957	3.83431
6.32297	3.78311
6.27704	3.90644
6.23177	3.85179
6.18715	3.94589
6.14317	4.00563
6.0998	4.1103
6.05705	4.0918
6.01489	4.11009
5.97331	4.26626
5.9323	4.33406
5.89186	4.34866
5.85196	4.85249
5.81259	6.15968
5.77376	6.01981
5.73543	2.62682
5.69762	2.38586
5.6603	2.87133
5.62347	3.16187
5.5871	3.22292
5.55121	3.30963
5.51578	3.47895
5.4808	3.43772
5.44625	3.48941
5.41214	3.59277
5.37846	3.58008
5.34519	3.57182
5.31233	3.60559
5.27987	3.58284
5.24781	3.59915
5.21613	3.68368
5.18483	3.73365
5.15391	3.63306
5.12335	3.65778
5.09316	3.72097
5.06331	3.77202
5.03382	3.6126
5.00467	3.76581
4.97585	3.61065
4.94736	3.76826
4.9192	3.73793
4.89135	3.61797
4.86382	3.66326
4.8366	3.73419
4.80968	3.68371
4.78306	3.67303
4.75673	3.70894
4.73069	3.67086
4.70493	3.82466
4.67945	3.6864
4.65425	3.74898
4.62932	3.81352
4.60465	3.7991
4.58024	3.72978
4.55609	3.76011
4.5322	3.82022
4.50855	3.72179
4.48515	3.69034
4.46199	3.89066
4.43907	3.7257
4.41638	3.76128
4.39393	3.76396
4.3717	3.80431
4.34969	3.83338
4.32791	3.82555
4.30634	3.74613
4.28499	3.77132
4.26384	3.70002
4.24291	3.70799
4.22218	3.75209
4.20165	3.75558
4.18132	3.74707
4.16118	3.65372
4.14124	3.74231
4.12149	3.74
4.10192	3.86098
4.08255	3.70598
4.06335	3.81111
4.04433	3.90174
4.02549	3.75497
4.00683	3.85434
3.98833	3.73168
3.97001	3.81151
3.95186	3.79784
3.93386	3.76656
3.91604	3.76179
3.89837	3.77259
3.88086	3.91124
3.86351	3.88393
3.84631	3.73306
3.82927	3.77548
3.81238	3.81397
3.79563	3.83056
3.77903	3.70089
3.76258	3.80398
3.74627	3.88589
3.7301	3.8715
3.71406	3.83036
3.69817	3.78164
3.68241	3.85662
3.66678	3.79027
3.65129	3.85914
3.63593	3.7579
3.62069	3.85404
3.60559	3.82166
3.59061	3.83978
3.57575	3.85668
3.56101	3.66108
3.5464	3.98797
3.5319	3.75153
3.51753	3.87061
3.50327	3.69028
3.48912	3.77108
3.47509	3.7976
3.46117	3.95479
3.44736	3.90775
3.43367	3.84185
3.42007	3.80681
3.40659	3.72593
3.39322	3.40389
3.37994	3.58866
3.36678	3.40386
3.35371	3.41013
3.34074	3.33678
3.32788	3.4756
3.31511	3.5331
3.30244	3.55163
3.28987	3.66918
3.27739	3.66649
3.26501	3.65185
3.25272	3.63915
3.24052	3.59144
3.22841	3.59289
3.2164	3.91546
3.20447	3.59526
3.19263	3.78276
3.18088	3.65436
3.16921	3.76447
3.15763	3.65701
3.14614	3.71662
3.13472	3.71816
3.12339	3.61165
3.11214	3.78252
3.10098	3.83458
3.08989	3.72184
3.07888	3.76137
3.06795	3.61172
3.0571	3.71106
3.04632	3.8176
3.03562	3.82309
3.02499	3.81706
3.01444	3.85221
3.00396	3.59422
2.99355	3.86244
2.98322	3.71234
2.97295	3.57823
2.96276	3.88825
2.95264	3.73623
2.94258	3.79687
2.9326	3.72547
2.92268	3.60047
2.91283	3.72116
2.90304	3.68953
2.89332	3.61911
2.88367	3.64943
2.87408	3.74958
2.86455	3.75679
2.85508	3.81821
2.84568	3.72367
2.83634	3.64673
2.82706	3.80832
2.81784	3.75705
2.80869	3.68759
2.79959	3.79067
2.79055	3.64534
2.78156	3.74634
2.77264	3.87928
2.76377	3.66208
2.75496	3.52935
2.7462	3.52194
2.7375	3.77979
2.72886	3.75069
2.72027	3.80537
2.71173	3.89465
2.70325	3.6036
2.69482	3.93112
2.68644	3.67867
2.67812	3.96283
2.66984	3.82515
2.66162	3.77635
2.65345	3.73161
2.64532	3.85932
2.63725	3.75757
2.62923	3.83718
2.62125	3.87809
2.61332	3.91964
2.60544	3.51918
2.59761	3.72994
2.58983	3.91744
2.58209	3.73327
2.5744	3.65445
2.56675	3.89836
2.55915	3.75251
2.55159	3.89598
2.54408	3.71686
2.53661	3.84537
2.52919	3.85549
2.52181	3.57155
2.51447	3.63814
2.50717	3.83366
2.49992	3.96853
2.49271	3.71674
2.48554	3.81148
2.47841	3.80075
2.47132	3.73667
2.46427	3.95371
2.45727	3.71259
2.4503	3.84408
2.44337	3.74325
2.43648	3.69664
2.42963	3.59296
2.42282	3.62971
2.41605	3.70056
2.40931	3.71211
2.40261	3.77839
2.39595	3.65828
2.38932	3.89579
2.38274	3.7446
2.37618	3.63269
2.36967	3.68784
2.36319	3.77462
2.35674	3.59688
2.35033	3.63921
2.34396	3.90473
2.33762	3.77314
2.33131	3.84366
2.32504	3.8345
2.3188	3.94953
2.31259	3.74744
2.30642	3.38699
2.30028	3.63798
2.29417	3.8518
2.2881	3.6931
2.28206	3.69505
2.27605	3.96629
2.27007	3.81063
2.26412	3.80747
2.2582	4.01325
2.25232	3.70214
2.24646	3.51819
2.24064	3.58513
2.23484	3.69977
2.22908	3.79918
2.22334	3.84697
2.21764	3.90232
2.21196	3.58673
2.20631	3.90444
2.20069	3.61509
2.1951	3.89674
2.18954	3.92533
2.18401	3.74175
2.1785	3.60487
2.17302	3.77731
2.16757	3.93476
2.16215	3.64406
2.15675	3.75147
2.15138	3.72641
2.14604	3.64054
2.14072	3.71858
2.13543	3.71423
2.13017	4.02023
2.12493	3.69672
2.11972	3.72279
2.11453	3.98435
2.10937	3.9389
2.10423	3.7772
2.09912	3.71761
2.09404	3.67855
2.08897	3.60461
2.08394	4.02446
2.07892	4.36819
2.07393	4.00291
2.06897	3.64661
2.06403	3.61232
2.05911	3.78192
2.05421	3.85292
2.04934	3.76353
2.04449	3.77962
2.03967	3.70191
2.03486	3.51387
2.03008	3.50034
2.02533	3.64589
2.02059	3.63935
2.01588	3.62958
2.01118	3.55005
2.00651	3.66471
2.00187	3.83178
