Name: Jarosite KFe_3^3+(SO_4)_2(OH)_6
Type: Mineral
Class: Sulfates
Particle Size: 45-125um
Sample No.: SO-7A
Owner: JPL
Origin: Mexico, Chihuahua.
Measurement: Hemispherical reflectance
X Units: Wavelength (micrometers)
Y Units: Reflectance (percent)
wavelength	value
2.5	46.0529
2.494	46.0816
2.488	46.4739
2.482	46.5946
2.476	46.4988
2.47	46.8413
2.464	46.8391
2.458	46.982
2.452	47.3187
2.446	47.701
2.44	48.0802
2.434	48.4761
2.428	49.0006
2.422	49.4539
2.416	49.9121
2.41	50.3613
2.404	50.8068
2.398	51.2265
2.392	51.8237
2.386	52.4847
2.38	53.0032
2.374	53.6848
2.368	54.1868
2.362	54.5361
2.356	54.9098
2.35	55.1266
2.344	55.1675
2.338	54.9741
2.332	54.5957
2.326	54.0448
2.32	53.4746
2.314	52.7976
2.308	52.17
2.302	51.5901
2.296	51.111
2.29	50.6762
2.284	50.4798
2.278	50.6019
2.272	50.9766
2.266	51.6725
2.26	52.5678
2.254	53.4566
2.248	54.2021
2.242	55.001
2.236	55.8112
2.23	56.592
2.224	57.2888
2.218	57.8666
2.212	58.3828
2.206	58.8889
2.2	59.4013
2.194	59.9666
2.188	60.4688
2.182	60.9796
2.176	61.491
2.17	61.8977
2.164	62.3323
2.158	62.6702
2.152	63.018
2.146	63.2747
2.14	63.5055
2.134	63.6341
2.128	63.7679
2.122	63.7757
2.116	63.7507
2.11	63.6565
2.104	63.6721
2.098	63.7345
2.092	63.8997
2.086	64.2136
2.08	64.3195
2.074	64.4195
2.068	64.6064
2.062	64.735
2.056	64.8556
2.05	64.9388
2.044	65.065
2.038	65.1757
2.032	65.2637
2.026	65.317
2.02	65.3401
2.014	65.3124
2.008	65.3651
2.002	65.3046
1.996	65.242
1.99	65.2624
1.984	65.0176
1.978	64.9788
1.972	64.7431
1.966	64.6111
1.96	64.5765
1.954	64.5845
1.948	64.4669
1.942	64.4582
1.936	64.6173
1.93	64.5873
1.924	64.896
1.918	65.1007
1.912	65.3602
1.906	65.6662
1.9	66.0038
1.894	66.0335
1.888	65.8724
1.882	65.6242
1.876	65.3278
1.87	65.0269
1.864	64.9887
1.858	65.1479
1.852	65.5869
1.846	66.148
1.84	66.7966
1.834	67.3264
1.828	67.9637
1.822	68.4794
1.816	68.9002
1.81	69.2225
1.804	69.5212
1.798	69.788
1.792	70.048
1.786	70.3065
1.78	70.6465
1.774	70.8432
1.768	71.1495
1.762	71.4963
1.756	71.783
1.75	72.1027
1.744	72.4811
1.738	72.7177
1.732	73.0312
1.726	73.3071
1.72	73.4143
1.714	73.7573
1.708	73.8914
1.702	74.1259
1.696	74.3021
1.69	74.2839
1.684	74.4246
1.678	74.5279
1.672	74.7681
1.666	74.726
1.66	74.8421
1.654	74.8638
1.648	75.096
1.642	75.1778
1.636	75.2282
1.63	75.3806
1.624	75.5469
1.618	75.5345
1.612	75.6709
1.606	75.7525
1.6	75.6961
1.594	75.723
1.588	75.6089
1.582	75.6242
1.576	75.6109
1.57	75.5439
1.564	75.4368
1.558	75.2042
1.552	75.0327
1.546	74.8858
1.54	74.7582
1.534	74.6929
1.528	74.5378
1.522	74.5289
1.516	74.4477
1.51	74.4192
1.504	74.1913
1.498	73.8399
1.492	73.0421
1.486	72.361
1.48	72.0827
1.474	72.3177
1.468	72.9817
1.462	73.6826
1.456	74.2816
1.45	74.6472
1.444	74.911
1.438	75.1631
1.432	75.1131
1.426	75.0217
1.42	74.8727
1.414	74.7694
1.408	74.6154
1.402	74.5835
1.396	74.5122
1.39	74.2777
1.384	73.997
1.378	73.6373
1.372	73.1679
1.366	72.7742
1.36	72.2903
1.354	71.7811
1.348	71.2061
1.342	70.6822
1.336	70.1196
1.33	69.5696
1.324	68.9597
1.318	68.3654
1.312	67.8097
1.306	67.2243
1.3	66.5722
1.294	66.0168
1.288	65.4188
1.282	64.7615
1.276	64.0943
1.27	63.4467
1.264	62.7869
1.258	62.1597
1.252	61.466
1.246	60.8567
1.24	60.1955
1.234	59.4595
1.228	58.8056
1.222	58.1313
1.216	57.3856
1.21	56.7224
1.204	56.0933
1.198	55.3338
1.192	54.6936
1.186	54.0245
1.18	53.3768
1.174	52.7069
1.168	51.9813
1.162	51.3453
1.156	50.6374
1.15	50.0178
1.144	49.3137
1.138	48.5862
1.132	47.9797
1.126	47.2743
1.12	46.6371
1.114	46.0508
1.108	45.3535
1.102	44.7086
1.096	44.1638
1.09	43.5097
1.084	42.9607
1.078	42.2896
1.072	41.7601
1.066	41.2099
1.06	40.5919
1.054	39.9854
1.048	39.4766
1.042	38.9527
1.036	38.41
1.03	37.8671
1.024	37.3002
1.018	36.7161
1.012	36.2356
1.006	35.7579
1	35.2721
0.994	34.7775
0.988	34.3737
0.982	33.8383
0.976	33.5107
0.97	33.1094
0.964	32.7397
0.958	32.4296
0.952	32.1526
0.946	31.8842
0.94	31.6302
0.934	31.4927
0.928	31.408
0.922	31.2251
0.916	31.1833
0.91	31.139
0.904	31.1661
0.898	31.1994
0.892	31.2854
0.886	31.4797
0.88	31.5356
0.874	31.7493
0.868	31.9975
0.862	32.1744
0.856	32.7949
0.85	33.1948
0.844	33.53
0.838	34.0135
0.832	34.4605
0.826	35.0046
0.82	35.559
0.814	36.1675
0.808	36.7915
0.802	37.4429
0.796	38.0926
0.79	38.7832
0.784	39.4875
0.778	40.1412
0.772	40.8265
0.766	41.3937
0.76	41.9659
0.754	42.4586
0.748	42.7839
0.742	43.0045
0.736	43.0403
0.73	42.9116
0.724	42.6461
0.718	42.2257
0.712	41.6795
0.706	41.0862
0.7	40.426
0.694	39.7506
0.688	39.0389
0.682	38.3441
0.676	37.6336
0.67	36.9191
0.664	36.2389
0.658	35.4957
0.652	34.7237
0.646	33.9153
0.64	33.0352
0.634	32.1604
0.628	31.1803
0.622	30.1596
0.616	29.0966
0.61	28.0485
0.604	27.007
0.598	26.0155
0.592	25.0966
0.586	24.2456
0.58	23.478
0.574	22.7868
0.568	22.1751
0.562	21.6107
0.556	21.0814
0.55	20.5777
0.544	20.0952
0.538	19.6185
0.532	19.1294
0.526	18.6308
0.52	18.1117
0.514	17.5802
0.508	16.9539
0.502	16.2331
0.496	15.402
0.49	14.47
0.484	13.4324
0.478	12.4494
0.472	11.522
0.466	10.6946
0.46	9.93115
0.454	9.11186
0.448	8.28146
0.442	7.57723
0.436	7.25521
0.43	7.14874
0.424	6.91844
0.418	6.52862
0.412	6.03686
0.406	5.52219
0.4	5.07184
