Name: Biotite Granite
Type: Rock
Class: Igneous
Subclass: Felsic
Particle Size: Solid surface
Sample No.: Ward10.txt
Owner: JPL
Origin: Ward's Collection of American Rocks.  Sample locality - Woodbury, Washington County, Vermont.
Description: A gray, medium-grained rock consisting of feldspar, quartz,
Measurement: Hemispherical reflectance
X Units: Wavelength (micrometers)
Y Units: Reflectance (percent)
wavelength	value
15.3871	5.21859
15.118	4.1691
14.8581	4.47566
14.6069	4.74537
14.3642	4.8872
14.1293	4.57597
13.9021	5.25116
13.682	5.49454
13.4687	5.67912
13.2621	5.9455
13.0616	6.69291
12.8672	8.8615
12.6784	7.41582
12.4951	7.81053
12.317	3.71861
12.1439	4.56231
11.9757	5.35945
11.812	5.77088
11.6527	6.46753
11.4977	6.99928
11.3468	7.3998
11.1997	8.34401
11.0564	8.86575
10.9168	9.97054
10.7806	10.7793
10.6478	11.5737
10.5182	12.5698
10.3917	13.3051
10.2683	14.6883
10.1477	16.4389
10.0299	18.304
9.9148	20.0157
9.8024	20.8606
9.6925	21.0477
9.585	21.8808
9.4798	23.0679
9.377	26.0987
9.2763	29.0816
9.1778	28.9325
9.0814	28.7117
8.987	28.52
8.8945	28.4116
8.8039	28.2188
8.7151	27.262
8.6281	22.5452
8.5428	27.471
8.4592	27.2972
8.3772	26.6743
8.2967	25.0222
8.2179	21.8123
8.1404	17.1017
8.0645	11.0075
7.9899	7.19047
7.9167	4.39373
7.8449	2.99654
7.7743	2.21208
7.705	1.69758
7.6369	1.50298
7.57	1.19836
7.5043	1.18629
7.4397	1.24721
7.3762	1.25892
7.3138	1.41756
7.2524	1.43887
7.1921	1.48222
7.1327	1.61175
7.0743	1.68163
7.0169	1.77157
6.9604	1.74137
6.9047	1.92128
6.85	1.94421
6.7962	1.99614
6.7431	2.09002
6.6909	2.09938
6.6395	2.10477
6.5889	2.16857
6.539	2.2627
6.49	2.19501
6.4416	2.25276
6.3939	2.27487
6.347	2.16004
6.3007	2.22102
6.2551	2.30374
6.2101	2.24271
6.1658	2.43852
6.1222	2.39348
6.0791	2.30852
6.0366	2.38446
5.9948	2.45742
5.9535	2.4426
5.9127	2.49532
5.8726	2.5278
5.8329	2.77395
5.7938	2.71869
5.7552	2.77575
5.7172	2.8645
5.6796	2.80043
5.6425	2.81667
5.6059	2.90363
5.5698	2.78548
5.5341	3.02396
5.4989	3.05987
5.4641	3.1835
5.4298	3.2405
5.3959	3.27558
5.3624	3.27443
5.3294	3.27134
5.2967	3.35618
5.2644	3.36133
5.2326	3.55891
5.2011	3.70968
5.17	3.80542
5.1392	3.89158
5.1088	3.98932
5.0788	4.09376
5.0491	4.10015
5.0198	4.25082
4.9908	4.33271
4.9622	4.66059
4.9338	4.52774
4.9058	4.76425
4.8781	5.12122
4.8508	5.43497
4.8237	5.77636
4.7969	6.03234
4.7704	6.32919
4.7443	6.39961
4.7184	6.53754
4.6927	6.52429
4.6674	6.64064
4.6423	7.20611
4.6175	7.63245
4.593	8.11619
4.5687	8.2349
4.5447	8.40648
4.5209	8.2888
4.4974	8.14488
4.4741	8.22813
4.451	8.50869
4.4282	9.06744
4.4057	9.59169
4.3833	10.1995
4.3612	11.1124
4.3393	11.9889
4.3176	12.3612
4.2962	12.8264
4.2749	13.2937
4.2539	14.0282
4.233	14.186
4.2124	14.7235
4.192	15.0779
4.1717	15.5619
4.1517	15.9638
4.1319	16.4326
4.1122	16.9157
4.0927	17.3964
4.0734	17.7611
4.0543	17.816
4.0354	17.9929
4.0166	18.0233
3.9981	17.8801
3.9796	18.1728
3.9614	18.4766
3.9433	18.9349
3.9254	19.3279
3.9077	19.4434
3.8901	19.3536
3.8726	19.4933
3.8554	19.5375
3.8382	19.8596
3.8213	19.7774
3.8045	20.2073
3.7878	20.0919
3.7713	20.1471
3.7549	20.1437
3.7386	20.117
3.7225	20.2194
3.7066	20.7606
3.6907	20.9494
3.675	21.3972
3.6595	21.4123
3.644	21.5544
3.6287	21.396
3.6136	21.575
3.5985	21.3485
3.5836	21.1602
3.5688	21.3465
3.5541	21.0927
3.5396	21.0407
3.5251	20.925
3.5108	20.6006
3.4966	20.2341
3.4825	19.8627
3.4685	19.9836
3.4547	19.8351
3.4409	19.5525
3.4273	19.2486
3.4137	18.8287
3.4003	18.3048
3.387	18.3911
3.3738	17.6321
3.3606	17.8311
3.3476	17.4273
3.3347	17.1457
3.3219	16.7521
3.3092	16.5394
3.2965	16.0446
3.284	15.4042
3.2716	15.1488
3.2593	15.1291
3.247	14.8467
3.2348	14.1637
3.2228	14.0602
3.2108	13.4739
3.1989	13.4575
3.1871	12.9606
3.1754	12.4511
3.1638	11.9797
3.1523	11.8869
3.1408	11.5433
3.1294	11.0581
3.1181	11.0306
3.1069	10.8756
3.0958	10.7917
3.0848	10.2374
3.0738	10.6178
3.0629	10.4066
3.0521	10.5171
3.0413	10.7449
3.0307	9.94442
3.0201	9.57923
3.0096	9.91905
2.9991	9.55062
2.9887	9.49117
2.9784	10.0146
2.9682	9.38376
2.9581	9.86066
2.948	9.33058
2.9379	9.46812
2.928	10.107
2.9181	9.6973
2.9083	9.44746
2.8985	9.88912
2.8888	9.71483
2.8792	9.58977
2.8697	10.0307
2.8602	9.70308
2.8507	9.66739
2.8413	9.64893
2.832	9.78022
2.8228	9.76025
2.8136	9.8582
2.8045	10.537
2.7954	10.085
2.7864	10.6259
2.7774	10.8984
2.7685	10.6286
2.7597	10.6812
2.7509	11.8066
2.7422	12.7095
2.7335	14.1198
2.7249	15.8009
2.7163	17.4156
2.7078	18.9864
2.6994	20.8001
2.691	22.6923
2.6826	25.1803
2.6743	26.1991
2.666	27.8254
2.6578	27.573
2.6497	27.8414
2.6416	28.2234
2.6336	28.5353
2.6256	29.0647
2.6176	29.0836
2.6097	28.639
2.6018	29.6504
2.594	29.8913
2.5863	29.3257
2.5785	29.3986
2.5709	30.0642
2.5633	30.0378
2.5557	29.4359
2.5481	29.7261
2.5406	29.4851
2.5332	29.773
2.5258	29.5039
2.5184	29.8435
2.5111	29.3233
2.5038	30.7547
2.4966	30.4813
2.4894	30.1275
2.4823	30.1938
2.4752	30.6106
2.4681	30.6424
2.4611	30.5374
2.4541	31.0283
2.4471	30.7572
2.4402	30.828
2.4333	31.2179
2.4265	30.8677
2.4197	31.3974
2.413	31.2399
2.4063	31.0681
2.3996	31.2967
2.3929	31.1206
2.3863	32.0026
2.3798	31.7824
2.3732	31.4844
2.3667	32.6169
2.3603	32.0068
2.3538	31.2959
2.3474	31.8355
2.3411	31.7565
2.3347	32.1072
2.3285	31.9838
2.3222	32.5326
2.316	32.7192
2.3098	33.125
2.3036	33.4637
2.2975	32.9629
2.2914	33.5989
2.2854	33.5906
2.2793	34.296
2.2733	34.2034
2.2674	34.2044
2.2614	33.2267
2.2555	34.1563
2.2497	34.1817
2.2438	34.9165
2.238	33.7304
2.2322	34.1178
2.2265	35.4874
2.2208	33.9107
2.2151	34.8236
2.2094	33.4273
2.2038	34.0678
2.1982	34.1539
2.1926	35.0531
2.187	34.3043
2.1815	34.6177
2.176	34.3899
2.1706	34.6633
2.1651	34.1217
2.1597	34.2218
2.1543	34.1395
2.149	35.3555
2.1436	34.2218
2.1383	33.8685
2.1331	33.7754
2.1278	34.0971
2.1226	34.6989
2.1174	34.7583
2.1122	34.6294
2.1071	33.7331
2.1019	33.8468
2.0968	34.1095
2.0918	34.5907
2.0867	32.8357
2.0817	34.828
2.0767	32.5789
2.0717	34.8967
2.0667	35.3064
2.0618	33.4065
2.0569	34.0998
2.052	32.987
2.0472	32.9999
2.0423	34.4662
2.0375	35.0764
2.0327	33.1953
2.028	32.5818
2.0232	33.557
2.0185	32.7349
2.0138	35.5183
2.0091	32.1831
2.0044	34.3344
1.9998	33.4727
