Name: Ulexite NaCaB_5O_6(OH)_6.5H_2O
Type: Mineral
Class: Borates
Particle Size: 125-500um
Sample No.: B-3A
Owner: JPL
Origin: USA, California, Kern County, Boron.
Measurement: Hemispherical reflectance
X Units: Wavelength (micrometers)
Y Units: Reflectance (percent)
wavelength	value
2.5	1.30848
2.494	1.53826
2.488	1.58295
2.482	1.57971
2.476	1.49922
2.47	1.50552
2.464	1.56544
2.458	1.55283
2.452	1.81703
2.446	1.74036
2.44	1.90788
2.434	1.96358
2.428	2.02669
2.422	2.1554
2.416	2.24901
2.41	2.32975
2.404	2.46887
2.398	2.58332
2.392	2.76278
2.386	2.98691
2.38	3.28739
2.374	3.51552
2.368	3.88365
2.362	4.09175
2.356	4.38114
2.35	4.61556
2.344	4.89614
2.338	5.17258
2.332	5.28355
2.326	5.46203
2.32	5.54138
2.314	5.706
2.308	5.85993
2.302	6.01799
2.296	6.1538
2.29	6.18869
2.284	6.19885
2.278	6.14837
2.272	5.88879
2.266	5.71976
2.26	5.32209
2.254	4.92692
2.248	4.55973
2.242	4.43531
2.236	4.37523
2.23	4.28594
2.224	4.33644
2.218	4.2665
2.212	4.11664
2.206	3.80185
2.2	3.49422
2.194	3.291
2.188	3.01807
2.182	2.79431
2.176	2.56525
2.17	2.59633
2.164	2.60798
2.158	2.70831
2.152	2.9119
2.146	3.01966
2.14	3.07659
2.134	2.98633
2.128	2.81612
2.122	2.72342
2.116	2.8485
2.11	3.05677
2.104	3.22235
2.098	3.36689
2.092	3.52825
2.086	3.66966
2.08	3.7176
2.074	3.83207
2.068	3.85306
2.062	3.96704
2.056	4.01398
2.05	4.06061
2.044	4.07445
2.038	4.0957
2.032	4.06132
2.026	4.05135
2.02	3.97808
2.014	3.89493
2.008	3.69708
2.002	3.54153
1.996	3.13421
1.99	2.88497
1.984	2.60657
1.978	2.36749
1.972	2.18335
1.966	2.03107
1.96	1.89891
1.954	1.76938
1.948	1.78208
1.942	2.06037
1.936	2.61704
1.93	3.16586
1.924	4.03189
1.918	4.96049
1.912	6.11733
1.906	7.36216
1.9	8.82629
1.894	10.269
1.888	11.7094
1.882	12.9663
1.876	14.0971
1.87	15.1984
1.864	16.2016
1.858	16.8764
1.852	17.4593
1.846	17.965
1.84	18.3201
1.834	18.5566
1.828	18.7377
1.822	18.7733
1.816	18.7835
1.81	18.7435
1.804	18.5865
1.798	18.3425
1.792	18.0862
1.786	17.8187
1.78	17.704
1.774	17.6657
1.768	17.7531
1.762	17.8252
1.756	17.9534
1.75	18.0129
1.744	18.0987
1.738	18.2735
1.732	18.3293
1.726	18.4591
1.72	18.5635
1.714	18.6074
1.708	18.6968
1.702	18.7568
1.696	18.8419
1.69	18.8346
1.684	18.8809
1.678	19.0343
1.672	19.0452
1.666	19.1859
1.66	19.3247
1.654	19.5405
1.648	19.6386
1.642	19.8521
1.636	19.9522
1.63	20.1478
1.624	20.2736
1.618	20.4994
1.612	20.7204
1.606	20.985
1.6	21.1971
1.594	21.439
1.588	21.6783
1.582	21.7537
1.576	21.8541
1.57	21.9038
1.564	21.8045
1.558	21.6916
1.552	21.4082
1.546	20.9998
1.54	20.6413
1.534	20.2844
1.528	20.1405
1.522	19.8482
1.516	19.3837
1.51	18.7332
1.504	18.1881
1.498	17.7487
1.492	17.3043
1.486	16.7172
1.48	15.9863
1.474	15.4085
1.468	15.023
1.462	15.1604
1.456	15.6811
1.45	16.4652
1.444	16.8809
1.438	15.8982
1.432	14.8074
1.426	15.9477
1.42	20.0119
1.414	24.7308
1.408	29.6532
1.402	34.6412
1.396	38.1191
1.39	42.4202
1.384	45.3602
1.378	47.2459
1.372	48.6706
1.366	49.5443
1.36	50.2181
1.354	50.7548
1.348	51.3782
1.342	52.4314
1.336	53.7237
1.33	55.4391
1.324	57.0849
1.318	58.7154
1.312	60.1459
1.306	61.5066
1.3	62.4594
1.294	63.1795
1.288	63.5737
1.282	63.7647
1.276	63.7634
1.27	63.496
1.264	63.4004
1.258	63.1309
1.252	62.8355
1.246	62.8003
1.24	62.8538
1.234	62.8389
1.228	62.9024
1.222	63.2666
1.216	63.5564
1.21	63.8436
1.204	64.1729
1.198	64.5537
1.192	65.2398
1.186	66.1876
1.18	67.784
1.174	69.7089
1.168	71.8258
1.162	73.8992
1.156	75.7768
1.15	77.2126
1.144	78.4023
1.138	79.3
1.132	79.9041
1.126	80.2692
1.12	80.5521
1.114	80.8199
1.108	81.0737
1.102	81.3383
1.096	81.4743
1.09	81.7202
1.084	81.9155
1.078	81.9469
1.072	81.943
1.066	81.969
1.06	81.7131
1.054	81.3618
1.048	80.9483
1.042	80.4444
1.036	79.9388
1.03	79.2108
1.024	78.546
1.018	77.8504
1.012	77.2477
1.006	76.6986
1	76.2528
0.994	75.7181
0.988	74.8619
0.982	73.4779
0.976	72.9609
0.97	75.0285
0.964	77.631
0.958	79.7192
0.952	81.1197
0.946	82.0763
0.94	82.7755
0.934	83.13
0.928	83.5281
0.922	83.9158
0.916	84.1673
0.91	84.2854
0.904	84.3502
0.898	84.421
0.892	84.4803
0.886	84.6186
0.88	84.8026
0.874	84.8485
0.868	84.9081
0.862	85.1037
0.856	84.9833
0.85	85.0421
0.844	85.1699
0.838	85.3499
0.832	85.4123
0.826	85.414
0.82	85.4418
0.814	85.4339
0.808	85.3896
0.802	85.3436
0.796	85.2178
0.79	85.1432
0.784	85.1297
0.778	85.0449
0.772	85.0011
0.766	84.9205
0.76	84.8536
0.754	84.7884
0.748	84.8235
0.742	85.1262
0.736	85.2941
0.73	85.4734
0.724	85.5419
0.718	85.6106
0.712	85.6481
0.706	85.6671
0.7	85.6959
0.694	85.7218
0.688	85.7206
0.682	85.7409
0.676	85.7429
0.67	85.7468
0.664	85.7513
0.658	85.7324
0.652	85.7484
0.646	85.7208
0.64	85.7245
0.634	85.7043
0.628	85.6925
0.622	85.6634
0.616	85.6429
0.61	85.658
0.604	85.6664
0.598	85.6729
0.592	85.6937
0.586	85.664
0.58	85.6205
0.574	85.5963
0.568	85.5512
0.562	85.4944
0.556	85.3963
0.55	85.308
0.544	85.23
0.538	85.1155
0.532	85.0167
0.526	84.8661
0.52	84.7297
0.514	84.5661
0.508	84.3627
0.502	84.1098
0.496	83.8399
0.49	83.5876
0.484	83.2146
0.478	83.0141
0.472	82.7795
0.466	82.5232
0.46	82.2252
0.454	81.9142
0.448	81.6195
0.442	81.2988
0.436	80.9805
0.43	80.6806
0.424	80.3631
0.418	80.0671
0.412	79.7056
0.406	79.3432
0.4	78.9574
