Name: Brucite Mg(OH)_2
Type: Mineral
Class: Hydroxides
Particle Size: 0-45um
Sample No.: OH-1A
Owner: JPL
Wavelength Range: VNIR-SWIR
Origin: USA, Nevada, Nye County, Gabbs
Measurement: Hemispherical reflectance
X Units: Wavelength (micrometers)
Y Units: Reflectance (percent)
wavelength	value
0.4	76.54
0.403	76.94
0.406	78.83
0.409	79.01
0.412	80.21
0.415	80.91
0.418	81.54
0.421	82.17
0.424	82
0.427	83.32
0.43	83.2
0.433	84.7
0.436	84.46
0.439	85.27
0.442	86.02
0.445	86.07
0.448	87.23
0.451	86.71
0.454	88.22
0.457	87.81
0.46	88.51
0.463	88.69
0.466	89.27
0.469	89.39
0.472	89.34
0.475	90.15
0.478	89.4
0.481	90.5
0.484	89.82
0.487	90.63
0.49	90.12
0.493	90.52
0.496	90.47
0.499	90.53
0.502	91
0.505	90.36
0.508	91.46
0.511	90.59
0.514	91.92
0.517	90.76
0.52	91.46
0.523	90.94
0.526	91.46
0.529	91.17
0.532	91.81
0.535	91.52
0.538	91.57
0.541	91.81
0.544	91.81
0.547	91.75
0.55	91.86
0.553	92.37
0.556	91.86
0.559	92.09
0.562	92.03
0.565	92.9
0.568	91.81
0.571	92.9
0.574	92.26
0.577	92.72
0.58	92.49
0.583	92.26
0.586	92.72
0.589	92.2
0.592	92.9
0.595	92.14
0.598	93.42
0.601	92.66
0.604	93.13
0.607	93.01
0.61	93.3
0.613	93.36
0.616	92.95
0.619	93.47
0.622	92.84
0.625	93.87
0.628	92.95
0.631	93.53
0.634	93.3
0.637	93.64
0.64	93.01
0.643	93.47
0.646	93.7
0.649	93.24
0.652	93.99
0.655	92.95
0.658	93.87
0.661	92.95
0.664	94.39
0.667	93.53
0.67	94.22
0.673	93.64
0.676	93.87
0.679	93.75
0.682	94.16
0.685	94.1
0.688	93.93
0.691	94.39
0.694	93.7
0.697	94.33
0.7	94.39
0.703	93.93
0.706	94.27
0.709	94.1
0.712	94.16
0.715	94.56
0.718	93.99
0.721	94.8
0.724	93.99
0.727	94.62
0.73	93.75
0.733	94.04
0.736	94.51
0.739	93.81
0.742	94.62
0.745	93.99
0.748	94.74
0.751	93.81
0.754	94.68
0.757	94.16
0.76	94.16
0.763	94.39
0.766	93.53
0.769	94.33
0.772	93.75
0.775	94.27
0.778	93.99
0.781	94.04
0.784	94.16
0.787	93.75
0.79	94.22
0.793	93.42
0.796	94.16
0.799	93.59
0.808	93.53
0.82	93.42
0.832	93.24
0.844	92.95
0.856	92.9
0.868	92.78
0.88	92.9
0.892	92.66
0.904	92.78
0.916	92.55
0.928	92.55
0.94	92.09
0.952	90.2
0.964	92.37
0.976	92.72
0.988	92.95
1	92.9
1.012	92.9
1.024	92.84
1.036	92.95
1.048	92.9
1.06	93.07
1.072	93.13
1.084	92.9
1.096	93.36
1.108	93.36
1.12	93.53
1.132	93.64
1.144	93.75
1.156	93.8
1.168	93.61
1.18	93.88
1.192	93.8
1.204	93.84
1.216	93.78
1.228	93.78
1.24	93.55
1.252	93.43
1.264	93.75
1.276	93.44
1.288	92.38
1.3	92.14
1.312	92.63
1.324	92.49
1.336	92.01
1.348	91.82
1.36	85.73
1.372	88.08
1.384	81.49
1.396	66.92
1.408	87.81
1.42	90.58
1.432	91.18
1.444	92.3
1.456	92.65
1.468	92.65
1.48	92.88
1.492	93.23
1.504	93.62
1.516	93.8
1.528	93.57
1.54	93.62
1.552	93.68
1.564	93.8
1.576	93.46
1.588	93.57
1.6	93.62
1.612	93.21
1.624	93.12
1.636	93.04
1.648	92.73
1.66	92.25
1.672	92.29
1.684	92.15
1.696	91.9
1.708	91.6
1.72	91.15
1.732	90.8
1.744	90.8
1.756	90.35
1.768	90
1.78	89.71
1.792	89.43
1.804	89.05
1.816	88.8
1.828	87.97
1.84	87.6
1.852	87.01
1.864	86.13
1.876	84.97
1.888	84.49
1.9	83.1
1.912	81.89
1.924	81.47
1.936	81.33
1.948	80.97
1.96	80.86
1.972	80.46
1.984	80.06
1.996	79.15
2.008	78.26
2.02	77.59
2.032	77.19
2.044	76.78
2.056	76.25
2.068	75.99
2.08	75.89
2.092	75.74
2.104	75.47
2.116	75.55
2.128	75.45
2.14	75.65
2.152	75.42
2.164	74.41
2.176	72.09
2.188	69.93
2.2	68.13
2.212	66.22
2.224	64.63
2.236	63.18
2.248	62.3
2.26	61.61
2.272	60.47
2.284	58.93
2.296	56.24
2.308	54.01
2.32	54.16
2.332	57
2.344	61.3
2.356	64.07
2.368	65.43
2.38	65.31
2.392	63.07
2.404	58.11
2.416	50.81
2.428	42.84
2.44	36.27
2.452	31.19
2.464	27.85
2.476	26.67
2.488	27.89
2.5	30
