Name: Sepiolite Mg_4Si_6O_15(OH)_2.6H_2O
Type: Mineral
Class: Silicates
Subclass: Phyllosilicates
Particle Size: 45-125um
Sample No.: PS-5A
Owner: JPL
Origin: USA, Nevada, Two Crows
Measurement: Hemispherical reflectance
X Units: Wavelength (micrometers)
Y Units: Reflectance (percent)
wavelength	value
15.385	0.6346
15.116	0.1823
14.856	0.3722
14.605	0.2756
14.362	0.6484
14.128	0.1327
13.9	0.1368
13.68	0.3561
13.467	0.5512
13.26	0.556
13.06	0.4593
12.866	0.5527
12.677	0.4342
12.494	0.7807
12.316	0.9539
12.143	1.4734
11.974	1.6483
11.811	2.0141
11.651	1.8557
11.496	1.8541
11.345	2.0345
11.198	2.4684
11.055	2.8336
10.915	2.8536
10.779	2.7559
10.647	2.5861
10.517	2.4971
10.39	2.6985
10.267	3.7645
10.146	3.1664
10.029	2.3992
9.914	4.1733
9.801	5.401
9.691	6.4115
9.584	5.4734
9.479	4.5916
9.376	3.2521
9.275	1.542
9.177	1.7938
9.08	1.6796
8.986	1.1147
8.893	0.953
8.803	0.5668
8.714	0.1826
8.627	0.1456
8.542	0.1739
8.458	0.0715
8.376	0
8.296	0.0413
8.217	0.1844
8.139	0.165
8.063	0.1871
7.989	0.1064
7.916	0.1437
7.844	0.194
7.773	0.1718
7.704	0.4615
7.636	0.454
7.569	0.4864
7.503	0.6973
7.439	0.7345
7.375	0.8272
7.313	0.9732
7.252	1.1617
7.191	1.334
7.132	1.4286
7.073	1.6592
7.016	1.7211
6.96	1.8888
6.904	2.162
6.849	2.2069
6.795	2.4481
6.742	2.5753
6.69	2.7151
6.639	2.7708
6.588	2.911
6.538	2.8955
6.489	2.9067
6.441	2.848
6.393	2.845
6.346	2.3832
6.3	1.9173
6.254	1.4062
6.209	0.7352
6.165	0.4505
6.121	0.5261
6.078	0.3667
6.036	0.4428
5.994	0.2903
5.953	0.4166
5.912	0.8394
5.872	1.5475
5.832	2.456
5.793	3.3209
5.755	4.1293
5.716	4.4974
5.679	4.8528
5.642	5.074
5.605	5.2252
5.569	5.5711
5.533	5.9595
5.498	6.4093
5.463	7.0483
5.429	7.6496
5.395	8.0322
5.362	8.0937
5.329	8.1613
5.296	7.7982
5.264	7.6108
5.232	7.6427
5.2	8.1666
5.169	8.8158
5.139	9.2733
5.108	9.6027
5.078	9.6735
5.049	9.556
5.019	9.5675
4.99	9.8412
4.962	10.1133
4.933	10.2305
4.905	10.311
4.878	10.2439
4.85	10.3901
4.823	10.4562
4.796	10.6681
4.77	10.9921
4.744	11.3147
4.718	11.7447
4.692	12.0821
4.667	12.5858
4.642	13.0405
4.617	13.5396
4.592	13.7651
4.568	14.1303
4.544	14.3968
4.52	14.451
4.497	14.4343
4.474	14.5884
4.45	14.8114
4.428	15.3149
4.405	15.9215
4.383	16.9096
4.361	17.7684
4.339	18.7727
4.317	19.7394
4.296	20.7401
4.274	21.6351
4.253	22.8109
4.233	23.7731
4.212	24.7786
4.191	25.7285
4.171	26.7087
4.151	27.5011
4.131	28.1937
4.112	28.7555
4.092	29.4403
4.073	30.1778
4.054	31.0387
4.035	32.1765
4.016	33.1427
3.998	34.0234
3.979	34.6404
3.961	35.3457
3.943	35.7982
3.925	36.0013
3.907	36.3516
3.89	36.6595
3.872	36.6147
3.855	36.6473
3.838	36.4586
3.821	36.1152
3.804	35.7949
3.787	35.5248
3.771	35.1023
3.754	34.528
3.738	33.9158
3.722	33.1979
3.706	32.3969
3.69	31.3876
3.675	30.4069
3.659	29.3797
3.644	28.2702
3.628	27.2413
3.613	26.2029
3.598	24.9874
3.583	24.0256
3.568	22.7521
3.554	21.5064
3.539	20.1346
3.525	18.7969
3.51	17.4608
3.496	15.9831
3.482	14.927
3.468	13.659
3.454	12.653
3.441	11.6126
3.427	10.4644
3.413	9.3645
3.4	8.4827
3.387	7.715
3.373	6.8922
3.36	6.2253
3.347	5.5409
3.334	4.9975
3.321	4.2867
3.309	3.8955
3.296	3.352
3.284	3.0268
3.271	2.6777
3.259	2.4185
3.247	1.952
3.234	1.925
3.222	1.6908
3.21	1.3735
3.199	1.407
3.187	1.1391
3.175	1.0716
3.163	0.8551
3.152	0.929
3.14	0.6583
3.129	0.7266
3.118	0.7451
3.107	0.7148
3.095	0.7827
3.084	0.7266
3.073	0.674
3.063	0.6614
3.052	0.6849
3.041	0.5638
3.03	0.5345
3.02	0.5391
3.009	0.5402
2.999	0.4747
2.988	0.6058
2.978	0.5685
2.968	0.5724
2.958	0.3881
2.948	0.5684
2.938	0.6277
2.928	0.5122
2.918	0.3479
2.908	0.5473
2.898	0.5812
2.888	0.5241
2.879	0.6012
2.869	0.6378
2.86	0.4683
2.85	0.7185
2.841	0.566
2.832	0.6888
2.822	0.4109
2.813	0.702
2.804	0.3932
2.795	0.4684
2.786	0.4515
2.777	0.8153
2.768	0.6968
2.759	0.5172
2.751	0.6477
2.742	0.6681
2.733	0.8902
2.725	1.4427
2.716	1.5967
2.707	1.8325
2.699	5.1327
2.691	6.4393
2.682	11.6076
2.674	14.9703
2.666	17.3733
2.658	19.4555
2.649	21.2002
2.641	22.5859
2.633	23.9546
2.625	25.1534
2.617	25.9726
2.609	26.8475
2.602	27.5156
2.594	28.0956
2.586	28.0064
2.578	28.0949
2.571	28.1297
2.563	27.8971
2.555	27.806
2.548	27.7601
2.54	27.4469
2.533	27.6096
2.525	27.6594
2.518	28.1661
2.511	28.995
2.504	29.9482
2.496	30.8766
2.489	31.9777
2.482	32.8231
2.475	34.0418
2.468	34.5606
2.461	35.1207
2.454	35.7518
2.447	36.2948
2.44	36.1038
2.433	36.6299
2.426	37.0964
2.419	37.4801
2.413	37.7816
2.406	38.6855
2.399	39.222
2.393	38.3035
2.386	39.0509
2.379	41.3253
2.373	43.9913
2.366	45.4996
2.36	46.8234
2.354	48.2798
2.347	49.9011
2.341	51.1224
2.334	51.6963
2.328	50.211
2.322	46.6755
2.316	43.3162
2.309	43.8027
2.303	48.6728
2.297	49.9925
2.291	50.7774
2.285	53.5078
2.279	57.2773
2.273	59.2914
2.267	60.3326
2.261	61.3749
2.255	61.9754
2.249	62.7024
2.244	63.0263
2.238	63.2206
2.232	63.2729
2.226	63.5458
2.22	63.9481
2.215	64.1196
2.209	64.763
2.204	64.9029
2.198	65.0582
2.192	64.4409
2.187	63.5467
2.181	64.4929
2.176	64.9601
2.17	65.8136
2.165	65.7739
2.159	65.9979
2.154	66.0825
2.149	65.9397
2.143	66.1221
2.138	66.3413
2.133	66.2908
2.128	66.3227
2.122	65.6898
2.117	65.5101
2.112	65.6463
2.107	65.0722
2.102	64.6118
2.097	64.2348
2.091	64.0462
2.086	63.602
2.081	63.5779
2.076	63.4399
2.071	63.5001
2.066	62.8182
2.062	62.3845
2.057	62.6616
2.052	62.2953
2.047	62.176
2.042	61.4677
2.037	61.0028
2.032	60.4714
2.028	59.7923
2.023	58.6905
2.018	57.9596
2.014	56.8395
2.009	55.5452
2.004	54.8586
