Name: Dolomite CaMg(CO_3)_2
Type: Mineral
Class: Carbonates
Particle Size: 45-125um
Sample No.: C-5C
Owner: JPL
Origin: USA, California, Los Angeles County, Palos Verdes.
Measurement: Hemispherical reflectance
X Units: Wavelength (micrometers)
Y Units: Reflectance (percent)
wavelength	value
2.5	44.6301
2.494	45.9526
2.488	47.6355
2.482	49.3636
2.476	50.5787
2.47	51.6157
2.464	52.5667
2.458	53.5297
2.452	55.07
2.446	57.174
2.44	59.5605
2.434	61.9816
2.428	64.5837
2.422	66.8966
2.416	68.9615
2.41	70.5117
2.404	71.7973
2.398	72.7687
2.392	73.7948
2.386	74.7823
2.38	75.6047
2.374	76.3837
2.368	76.7331
2.362	76.4307
2.356	75.041
2.35	72.3206
2.344	68.3632
2.338	64.114
2.332	60.3032
2.326	57.7045
2.32	56.4894
2.314	56.5008
2.308	57.1892
2.302	58.2557
2.296	59.3854
2.29	60.5977
2.284	61.5209
2.278	62.2774
2.272	63.0355
2.266	64.0069
2.26	65.6544
2.254	67.6982
2.248	69.872
2.242	71.8894
2.236	73.6242
2.23	74.9595
2.224	76.1021
2.218	77.1642
2.212	78.214
2.206	79.3199
2.2	80.3703
2.194	81.2333
2.188	82.0849
2.182	82.6805
2.176	83.0274
2.17	83.3688
2.164	83.4411
2.158	83.2802
2.152	83.0782
2.146	82.5437
2.14	82.3424
2.134	82.4658
2.128	82.707
2.122	83.1142
2.116	83.4151
2.11	83.5544
2.104	83.7199
2.098	83.791
2.092	84.0196
2.086	84.3928
2.08	84.6692
2.074	84.9458
2.068	85.2209
2.062	85.4565
2.056	85.6348
2.05	85.7578
2.044	85.7838
2.038	85.8769
2.032	85.866
2.026	85.7712
2.02	85.6184
2.014	85.483
2.008	85.1801
2.002	84.5885
1.996	83.7198
1.99	82.6972
1.984	81.9259
1.978	81.9095
1.972	82.309
1.966	82.767
1.96	83.2491
1.954	83.6065
1.948	83.7908
1.942	84.0565
1.936	84.4071
1.93	85.0175
1.924	85.4684
1.918	86.0345
1.912	86.5418
1.906	87.0292
1.9	87.4745
1.894	87.7543
1.888	88.1019
1.882	88.0831
1.876	87.4386
1.87	86.0369
1.864	84.75
1.858	84.7593
1.852	85.4599
1.846	86.1965
1.84	86.8206
1.834	87.3464
1.828	87.6514
1.822	87.9915
1.816	88.4197
1.81	88.7743
1.804	89.1594
1.798	89.5301
1.792	89.6871
1.786	89.8527
1.78	89.9452
1.774	90.1384
1.768	90.1698
1.762	90.1941
1.756	89.9761
1.75	89.8175
1.744	89.5602
1.738	89.5844
1.732	89.6121
1.726	89.7604
1.72	89.7813
1.714	89.8436
1.708	89.8994
1.702	89.9321
1.696	90.095
1.69	90.2439
1.684	90.3298
1.678	90.4701
1.672	90.5924
1.666	90.6937
1.66	90.7861
1.654	90.8243
1.648	90.6924
1.642	90.7422
1.636	90.7468
1.63	90.7879
1.624	90.8232
1.618	90.9557
1.612	90.9358
1.606	90.9851
1.6	91.0254
1.594	91.0947
1.588	90.9773
1.582	91.0167
1.576	91.0141
1.57	91.0075
1.564	90.9273
1.558	90.8138
1.552	90.7177
1.546	90.7944
1.54	90.8225
1.534	90.886
1.528	90.8169
1.522	90.8322
1.516	90.7707
1.51	90.8169
1.504	90.7894
1.498	90.8296
1.492	90.7823
1.486	90.7273
1.48	90.7199
1.474	90.7465
1.468	90.778
1.462	90.6952
1.456	90.7198
1.45	90.7781
1.444	90.7035
1.438	90.7519
1.432	90.8699
1.426	90.9277
1.42	91.019
1.414	91.0972
1.408	91.0698
1.402	91.2473
1.396	91.3446
1.39	91.364
1.384	91.5336
1.378	91.5581
1.372	91.5889
1.366	91.632
1.36	91.5487
1.354	91.5567
1.348	91.5404
1.342	91.593
1.336	91.5114
1.33	91.586
1.324	91.4924
1.318	91.5767
1.312	91.4711
1.306	91.4903
1.3	91.4436
1.294	91.4792
1.288	91.5022
1.282	91.4815
1.276	91.5415
1.27	91.4782
1.264	91.4766
1.258	91.5128
1.252	91.5067
1.246	91.4936
1.24	91.4578
1.234	91.4345
1.228	91.454
1.222	91.3977
1.216	91.4014
1.21	91.3706
1.204	91.3987
1.198	91.3439
1.192	91.4014
1.186	91.3915
1.18	91.3695
1.174	91.4096
1.168	91.3974
1.162	91.4373
1.156	91.2994
1.15	91.3394
1.144	91.3825
1.138	91.3598
1.132	91.3821
1.126	91.3361
1.12	91.3152
1.114	91.2851
1.108	91.2752
1.102	91.2826
1.096	91.2958
1.09	91.2519
1.084	91.3315
1.078	91.2896
1.072	91.3384
1.066	91.2504
1.06	91.2449
1.054	91.2498
1.048	91.374
1.042	91.3297
1.036	91.2615
1.03	91.2409
1.024	91.311
1.018	91.244
1.012	91.2769
1.006	91.2343
1	91.1783
0.994	91.2176
0.988	91.196
0.982	91.2009
0.976	91.325
0.97	91.2269
0.964	91.235
0.958	91.1752
0.952	91.2678
0.946	91.178
0.94	91.212
0.934	91.2327
0.928	91.2074
0.922	91.2439
0.916	91.182
0.91	91.2257
0.904	91.2118
0.898	91.2906
0.892	91.1793
0.886	91.2054
0.88	91.1814
0.874	91.2564
0.868	91.1889
0.862	91.1593
0.856	91.2786
0.85	91.3693
0.844	91.2416
0.838	91.2456
0.832	91.3321
0.826	91.172
0.82	91.1875
0.814	91.1925
0.808	91.1675
0.802	91.1673
0.796	91.0515
0.79	91.0038
0.784	90.9862
0.778	90.9181
0.772	90.8952
0.766	90.8396
0.76	90.7697
0.754	90.7359
0.748	90.6624
0.742	90.5873
0.736	90.5375
0.73	90.5113
0.724	90.4551
0.718	90.4031
0.712	90.332
0.706	90.2432
0.7	90.1675
0.694	90.1114
0.688	90.0146
0.682	89.9143
0.676	89.86
0.67	89.7541
0.664	89.6556
0.658	89.5407
0.652	89.4265
0.646	89.2856
0.64	89.1571
0.634	89.0089
0.628	88.8381
0.622	88.68
0.616	88.5126
0.61	88.3425
0.604	88.1674
0.598	88.0198
0.592	87.8915
0.586	87.7224
0.58	87.5539
0.574	87.3767
0.568	87.2057
0.562	86.9844
0.556	86.7785
0.55	86.556
0.544	86.3344
0.538	86.0993
0.532	85.8566
0.526	85.6019
0.52	85.3141
0.514	85.0145
0.508	84.7208
0.502	84.4044
0.496	84.0604
0.49	83.7019
0.484	83.3295
0.478	82.9555
0.472	82.5693
0.466	82.2144
0.46	81.7969
0.454	81.343
0.448	80.8533
0.442	80.292
0.436	79.7317
0.43	79.1055
0.424	78.4385
0.418	77.6927
0.412	76.8551
0.406	75.9566
0.4	74.987
