Name: Grey-green phyllite
Type: Rocks
Class: Metamorphic
Subclass: Greenschist facies
Particle Size: see additional information
Sample No.: FGE4
Owner: University of NSW
Origin: Picnic Creek Phyllite, Fowlers Gap, western New South Wales, Australia
Description: Chlorite/muscovite-rich phyllite
Measurement: Directional hemispherical reflectance
X Units: Wavelength (micrometers)
Y Units: Reflectance (percent)
wavelength	value
14.983	4.5936
14.728	5.1575
14.481	5.3779
14.242	4.3249
14.011	4.5949
13.788	4.996
13.571	5.3155
13.361	5.7108
13.158	5.9621
12.96	6.6874
12.769	6.7393
12.583	6.3563
12.402	4.445
12.227	4.184
12.056	4.9176
11.89	5.4926
11.729	6.0591
11.572	6.7512
11.419	7.4246
11.27	8.0138
11.125	8.8223
10.983	9.7375
10.846	9.4566
10.711	9.765
10.58	10.416
10.452	11.533
10.327	13.165
10.205	14.958
10.086	16.946
9.9695	19.757
9.8558	21.103
9.7447	23.123
9.636	26.367
9.5297	27.275
9.4257	28.243
9.324	30.151
9.2245	29.265
9.127	27.844
9.0316	25.617
8.9382	24.923
8.8467	24.566
8.757	22.861
8.6692	19.431
8.583	19.16
8.4986	19.726
8.4158	18.688
8.3347	17.897
8.255	17.743
8.1769	17.342
8.1002	14.035
8.025	10.711
7.9512	8.5911
7.8786	6.7767
7.8075	5.9232
7.7375	5.7842
7.6689	5.6858
7.6014	5.2807
7.5351	5.1605
7.47	4.9256
7.4059	4.8182
7.343	4.629
7.2811	4.5934
7.2203	4.6364
7.1604	4.3638
7.1016	4.0372
7.0437	3.7725
6.9867	3.7032
6.9307	3.825
6.8755	4.0289
6.8213	4.1908
6.7678	4.257
6.7152	4.2264
6.6634	4.3982
6.6124	4.4205
6.5622	4.2906
6.5128	4.6152
6.464	5.0589
6.416	5.0053
6.3687	4.7933
6.3221	4.4402
6.2762	4.102
6.231	3.8952
6.1863	3.8695
6.1424	4.2504
6.099	4.4828
6.0563	4.5133
6.0141	4.5757
5.9725	4.4445
5.9315	4.4303
5.8911	4.8291
5.8512	5.3301
5.8118	5.6772
5.773	5.964
5.7347	6.1827
5.6969	6.2861
5.6596	5.9846
5.6227	5.5067
5.5864	5.3623
5.5505	5.503
5.5151	5.8889
5.4801	6.3104
5.4455	6.5575
5.4114	6.1313
5.3778	5.2717
5.3445	5.0717
5.3116	5.2412
5.2792	5.6032
5.2471	6.3336
5.2154	7.3543
5.1842	7.7065
5.1532	7.7264
5.1227	7.7977
5.0925	7.7107
5.0627	7.4943
5.0332	7.4785
5.004	7.5307
4.9752	8.0634
4.9467	9.1321
4.9186	9.8107
4.8907	11.619
4.8632	13.097
4.836	13.987
4.809	14.548
4.7824	15.052
4.7561	15.594
4.7301	16.249
4.7043	16.592
4.6788	16.672
4.6536	17.623
4.6287	18.54
4.604	19.28
4.5796	19.871
4.5555	20.315
4.5316	20.299
4.508	19.744
4.4846	19.37
4.4614	19.503
4.4385	20.364
4.4158	21.056
4.3934	21.902
4.3711	22.824
4.3491	23.593
4.3273	23.985
4.3058	24.043
4.2844	23.986
4.2633	24.087
4.2424	24.678
4.2216	25.001
4.2011	25.229
4.1808	25.519
4.1606	25.737
4.1407	25.985
4.1209	26.196
4.1014	26.417
4.082	26.586
4.0628	26.668
4.0438	26.665
4.025	26.584
4.0063	26.599
3.9878	26.535
3.9695	26.556
3.9513	26.539
3.9333	26.579
3.9155	26.461
3.8979	26.285
3.8804	26.054
3.863	25.834
3.8458	25.586
3.8288	25.399
3.8119	25.199
3.7951	24.957
3.7785	24.6
3.7621	24.283
3.7458	23.953
3.7296	23.561
3.7136	23.272
3.6977	22.975
3.6819	22.673
3.6663	22.339
3.6508	21.943
3.6355	21.508
3.6202	20.987
3.6051	20.412
3.5901	19.817
3.5753	19.182
3.5605	18.46
3.5459	17.871
3.5314	17.417
3.5171	17.059
3.5028	16.586
3.4887	16.643
3.4746	16.47
3.4607	16.214
3.4469	15.764
3.4332	15.254
3.4196	14.524
3.4061	14.22
3.3928	14.036
3.3795	13.619
3.3663	13.33
3.3533	12.996
3.3403	12.728
3.3274	12.344
3.3147	11.995
3.302	11.67
3.2894	11.381
3.277	11.12
3.2646	10.918
3.2523	10.825
3.2401	10.715
3.228	10.476
3.216	10.257
3.204	10.108
3.1922	9.8485
3.1805	9.5509
3.1688	9.2986
3.1572	9.0794
3.1457	8.7466
3.1343	8.4709
3.123	8.2554
3.1117	8.0083
3.1006	7.744
3.0895	7.5232
3.0785	7.2693
3.0675	7.0237
3.0567	6.8424
3.0459	6.7227
3.0352	6.5734
3.0246	6.4561
3.014	6.3463
3.0036	6.3066
2.9932	6.1926
2.9828	6.1904
2.9726	6.0253
2.9624	6.0132
2.9523	5.9769
2.9422	5.9188
2.9322	5.8497
2.9223	5.8841
2.9124	5.8963
2.9027	5.9981
2.8929	6.0659
2.8833	6.1929
2.8737	6.2442
2.8642	6.3002
2.8547	6.2055
2.8453	6.1441
2.836	6.0224
2.8267	5.883
2.8175	5.8194
2.8083	5.6404
2.7992	5.5254
2.7902	5.4452
2.7812	5.284
2.7723	5.0882
2.7634	4.8467
2.7546	4.7087
2.7458	5.0955
2.7371	5.5857
2.7285	6.6311
2.7199	8.2597
2.7114	10.088
2.7029	11.108
2.6945	15.976
2.6861	22.916
2.6778	27.359
2.6695	29.827
2.6613	31.806
2.6531	32.863
2.645	33.702
2.6369	34.248
2.6289	34.495
2.6209	34.658
2.613	35.061
2.6051	34.907
2.5973	35.34
2.5895	35.613
2.5817	35.881
2.5741	36.018
2.5664	36.395
2.5588	36.654
2.5513	36.805
2.5437	36.95
2.5363	37.095
2.5289	37.181
2.5215	37.419
2.5141	37.471
2.5068	37.453
2.4996	37.539
2.4924	37.437
2.4852	37.693
2.4781	37.728
2.471	37.865
2.464	37.973
2.4569	38.113
2.45	38.305
2.4431	38.482
2.4362	38.777
2.4293	39.123
2.4225	39.402
2.4157	39.552
2.409	39.69
2.4023	39.716
2.3956	39.724
2.389	39.633
2.3824	39.41
2.3759	39.12
2.3694	38.48
2.3629	37.861
2.3564	37.221
2.35	36.938
2.3436	37.075
2.3373	37.662
2.331	38.325
2.3247	39.064
2.3185	39.579
2.3123	40.195
2.3061	40.753
2.3	41.245
2.2939	41.708
2.2878	42.007
2.2818	42.293
2.2757	42.274
2.2698	42.026
2.2638	41.396
2.2579	40.963
2.252	40.673
2.2462	41.012
2.2403	41.72
2.2345	41.836
2.2288	41.514
2.2231	41.102
2.2173	40.992
2.2117	41.35
2.206	42.094
2.2004	43.151
2.1948	43.892
2.1893	44.499
2.1837	45.152
2.1782	45.547
2.1727	45.772
2.1673	45.809
2.1619	46.08
2.1565	46.15
2.1511	46.342
2.1458	46.411
2.1404	46.393
2.1352	46.455
2.1299	46.355
2.1247	46.188
2.1194	46.399
2.1143	46.356
2.1091	46.493
2.104	46.528
2.0988	46.634
2.0938	46.873
2.0887	47.067
2.0837	47
