Name: Oligoclase (Feldspar) (NaSi,CaAl)AlSi_2O_8
Type: Mineral
Class: Silicates
Subclass: Tectosilicates
Particle Size: 45-125um
Sample No.: TS-3A
Owner: JPL
Wavelength Range: VNIR-SWIR
Description: Oligoclase
Measurement: Hemispherical reflectance
X Units: Wavelength (micrometers)
Y Units: Reflectance (percent)
wavelength	value
0.4	72.86
0.403	73.09
0.406	73.51
0.409	73.69
0.412	73.67
0.415	73.82
0.418	74.04
0.421	74.26
0.424	74.2
0.427	74.19
0.43	74.45
0.433	74.73
0.436	74.83
0.439	74.79
0.442	74.88
0.445	75.03
0.448	75.24
0.451	75.44
0.454	75.48
0.457	75.73
0.46	75.91
0.463	75.97
0.466	76.14
0.469	76.24
0.472	76.4
0.475	76.52
0.478	76.62
0.481	76.67
0.484	76.89
0.487	76.95
0.49	77.05
0.493	77.11
0.496	77.24
0.499	77.4
0.502	77.39
0.505	77.25
0.508	77.32
0.511	77.45
0.514	77.5
0.517	77.45
0.52	77.33
0.523	77.35
0.526	77.46
0.529	77.38
0.532	77.18
0.535	77.44
0.538	77.44
0.541	77.59
0.544	77.42
0.547	77.68
0.55	77.78
0.553	77.93
0.556	77.91
0.559	78.16
0.562	78.54
0.565	78.68
0.568	78.71
0.571	78.73
0.574	78.53
0.577	78.63
0.58	78.75
0.583	78.78
0.586	78.69
0.589	78.82
0.592	79.07
0.595	79.18
0.598	79.13
0.601	79.21
0.604	79.48
0.607	79.56
0.61	79.51
0.613	79.42
0.616	79.42
0.619	79.59
0.622	79.62
0.625	79.64
0.628	79.54
0.631	79.63
0.634	79.79
0.637	79.64
0.64	79.53
0.643	79.51
0.646	79.75
0.649	79.77
0.652	79.62
0.655	79.54
0.658	79.64
0.661	79.72
0.664	79.78
0.667	79.68
0.67	79.6
0.673	79.77
0.676	79.82
0.679	79.71
0.682	79.62
0.685	79.65
0.688	79.73
0.691	79.84
0.694	79.73
0.697	79.62
0.7	79.67
0.703	79.6
0.706	79.77
0.709	79.81
0.712	79.6
0.715	79.59
0.718	79.6
0.721	79.86
0.724	79.79
0.727	79.72
0.73	79.78
0.733	79.82
0.736	79.83
0.739	79.74
0.742	79.86
0.745	79.91
0.748	79.91
0.751	79.77
0.754	79.8
0.757	79.8
0.76	79.9
0.763	79.83
0.766	79.89
0.769	79.91
0.772	80.06
0.775	79.97
0.778	79.91
0.781	80.02
0.784	80.14
0.787	80.01
0.79	79.93
0.793	80.13
0.796	80.25
0.799	80.12
0.808	80.25
0.82	80.21
0.832	80.3
0.844	80.32
0.856	80.48
0.868	80.48
0.88	80.59
0.892	80.58
0.904	80.56
0.916	80.62
0.928	80.69
0.94	80.57
0.952	80.46
0.964	80.46
0.976	80.43
0.988	80.41
1	80.28
1.012	80.2
1.024	80.13
1.036	80.08
1.048	80.01
1.06	79.94
1.072	79.89
1.084	79.84
1.096	79.74
1.108	79.68
1.12	79.65
1.132	79.65
1.144	79.52
1.156	79.48
1.168	79.31
1.18	79.23
1.192	79.15
1.204	79.37
1.216	79.24
1.228	79.27
1.24	79.24
1.252	79.27
1.264	79.3
1.276	79.41
1.288	79.44
1.3	79.4
1.312	79.45
1.324	79.5
1.336	79.39
1.348	79.53
1.36	79.62
1.372	79.57
1.384	79.27
1.396	78.07
1.408	77.23
1.42	78.21
1.432	78.54
1.444	78.83
1.456	78.8
1.468	78.98
1.48	79.31
1.492	79.72
1.504	79.88
1.516	80.21
1.528	80.28
1.54	80.42
1.552	80.55
1.564	80.63
1.576	80.65
1.588	80.83
1.6	81.01
1.612	81.04
1.624	81.07
1.636	81.16
1.648	81.14
1.66	81.24
1.672	81.4
1.684	81.37
1.696	81.43
1.708	81.45
1.72	81.52
1.732	81.52
1.744	81.39
1.756	81.41
1.768	81.44
1.78	81.39
1.792	81.41
1.804	81.48
1.816	81.49
1.828	81.32
1.84	81.27
1.852	81.17
1.864	80.94
1.876	80.19
1.888	78.76
1.9	76.79
1.912	75.28
1.924	74.7
1.936	74.71
1.948	75.07
1.96	75.53
1.972	76.23
1.984	77.01
1.996	77.87
2.008	78.57
2.02	79.21
2.032	79.7
2.044	80.1
2.056	80.33
2.068	80.69
2.08	80.85
2.092	81.09
2.104	81.27
2.116	81.57
2.128	81.57
2.14	81.51
2.152	81.21
2.164	80.62
2.176	79.51
2.188	78.31
2.2	78.27
2.212	79
2.224	79.78
2.236	80.04
2.248	79.98
2.26	79.91
2.272	79.78
2.284	79.59
2.296	79.26
2.308	78.46
2.32	77.51
2.332	76.56
2.344	75.8
2.356	75.67
2.368	76.18
2.38	76.73
2.392	76.83
2.404	76.66
2.416	76.21
2.428	75.7
2.44	75.28
2.452	75
2.464	74.66
2.476	74.34
2.488	74.56
2.5	74.61
