Name: Howlite Ca_2B_5SiO_9(OH)_5
Type: Mineral
Class: Borates
Particle Size: 0-45um
Sample No.: B-5A
Owner: JPL
Origin: USA, California, San Gabriel Mountains, Tick Canyon.
Measurement: Hemispherical reflectance
X Units: Wavelength (micrometers)
Y Units: Reflectance (percent)
wavelength	value
2.5	52.4638
2.494	50.9498
2.488	49.5702
2.482	47.6991
2.476	45.4647
2.47	43.0641
2.464	41.222
2.458	40.3565
2.452	40.8846
2.446	42.5265
2.44	44.2322
2.434	45.8531
2.428	47.1792
2.422	49.0148
2.416	51.1711
2.41	53.7789
2.404	56.3113
2.398	58.555
2.392	60.4414
2.386	62.108
2.38	63.4612
2.374	64.5293
2.368	65.2424
2.362	65.6523
2.356	65.931
2.35	66.4936
2.344	67.1078
2.338	67.496
2.332	67.2351
2.326	66.6012
2.32	65.8319
2.314	65.1705
2.308	64.6522
2.302	64.1687
2.296	64.1196
2.29	64.2831
2.284	64.468
2.278	64.3554
2.272	63.8875
2.266	62.9907
2.26	61.6885
2.254	60.4297
2.248	59.4664
2.242	59.0937
2.236	59.299
2.23	59.9452
2.224	60.8179
2.218	61.5388
2.212	62.0261
2.206	62.4384
2.2	62.4102
2.194	61.8507
2.188	60.7799
2.182	59.4579
2.176	57.888
2.17	56.1534
2.164	54.9433
2.158	55.0241
2.152	56.1753
2.146	57.0856
2.14	56.5972
2.134	55.0572
2.128	54.1392
2.122	55.6434
2.116	58.3735
2.11	60.4877
2.104	61.9072
2.098	63.3792
2.092	65.6775
2.086	68.0737
2.08	70.7852
2.074	73.4938
2.068	75.7144
2.062	77.1763
2.056	78.1285
2.05	78.7235
2.044	78.9086
2.038	78.2137
2.032	78.0869
2.026	78.4329
2.02	79.4275
2.014	79.7037
2.008	79.8175
2.002	80.2668
1.996	80.6814
1.99	80.9701
1.984	81.3999
1.978	81.5999
1.972	81.7481
1.966	81.8772
1.96	81.9328
1.954	82.0659
1.948	82.2774
1.942	82.4889
1.936	82.438
1.93	82.6642
1.924	82.7578
1.918	82.8951
1.912	83.1744
1.906	83.39
1.9	83.6157
1.894	83.7128
1.888	83.877
1.882	84.0233
1.876	84.0856
1.87	84.3173
1.864	84.462
1.858	84.463
1.852	84.6305
1.846	84.6317
1.84	84.6901
1.834	84.6871
1.828	84.6724
1.822	84.5791
1.816	84.6683
1.81	84.564
1.804	84.6083
1.798	84.5889
1.792	84.5308
1.786	84.5038
1.78	84.4516
1.774	84.349
1.768	84.2861
1.762	84.1843
1.756	84.0914
1.75	83.9828
1.744	83.9011
1.738	83.7827
1.732	83.6117
1.726	83.5169
1.72	83.391
1.714	83.1872
1.708	83.1275
1.702	82.8796
1.696	82.7995
1.69	82.6886
1.684	82.5796
1.678	82.4093
1.672	82.2234
1.666	82.0414
1.66	81.9857
1.654	81.8862
1.648	81.8567
1.642	81.7754
1.636	81.726
1.63	81.8713
1.624	81.9153
1.618	82.0999
1.612	82.3574
1.606	82.5116
1.6	82.7638
1.594	83.0907
1.588	83.3737
1.582	83.7196
1.576	84.0385
1.57	84.2778
1.564	84.5178
1.558	84.6048
1.552	84.6051
1.546	84.5433
1.54	84.2942
1.534	83.619
1.528	82.4776
1.522	81.3557
1.516	81.4404
1.51	81.9079
1.504	82.1877
1.498	82.2061
1.492	82.4951
1.486	82.3524
1.48	81.8243
1.474	81.315
1.468	81.5321
1.462	81.6328
1.456	81.3524
1.45	77.6802
1.444	72.4399
1.438	77.652
1.432	75.2931
1.426	80.5615
1.42	81.9894
1.414	82.3869
1.408	83.0186
1.402	84.1392
1.396	85.5861
1.39	86.7436
1.384	87.6689
1.378	88.2171
1.372	88.7058
1.366	88.9095
1.36	89.0574
1.354	88.7306
1.348	88.3558
1.342	88.2797
1.336	88.0264
1.33	89.3174
1.324	89.9699
1.318	90.2204
1.312	90.5065
1.306	90.6346
1.3	90.7683
1.294	90.7751
1.288	90.7754
1.282	90.727
1.276	90.7132
1.27	90.6689
1.264	90.6038
1.258	90.4775
1.252	90.4794
1.246	90.4742
1.24	90.554
1.234	90.5595
1.228	90.7687
1.222	91.0005
1.216	91.1121
1.21	91.1984
1.204	91.3303
1.198	91.2926
1.192	91.3647
1.186	91.4421
1.18	91.3879
1.174	91.452
1.168	91.4554
1.162	91.5154
1.156	91.5373
1.15	91.4997
1.144	91.5704
1.138	91.5625
1.132	91.5531
1.126	91.5865
1.12	91.576
1.114	91.6384
1.108	91.6274
1.102	91.6291
1.096	91.484
1.09	91.5414
1.084	91.5786
1.078	91.5036
1.072	91.5964
1.066	91.6613
1.06	91.6922
1.054	91.6267
1.048	91.6349
1.042	91.6876
1.036	91.5237
1.03	91.4993
1.024	91.5724
1.018	91.5373
1.012	91.515
1.006	91.5168
1	91.3478
0.994	91.0106
0.988	90.7818
0.982	90.7952
0.976	90.965
0.97	91.2209
0.964	91.2601
0.958	91.3644
0.952	91.4019
0.946	91.546
0.94	91.6544
0.934	91.7172
0.928	91.6641
0.922	91.7816
0.916	91.8459
0.91	91.8227
0.904	91.8981
0.898	91.7477
0.892	91.802
0.886	91.8143
0.88	91.9282
0.874	91.8363
0.868	91.9087
0.862	91.9013
0.856	91.983
0.85	92.0957
0.844	92.0012
0.838	91.9377
0.832	91.941
0.826	91.9818
0.82	91.8517
0.814	91.9296
0.808	91.9155
0.802	91.8848
0.796	91.9365
0.79	91.9231
0.784	91.8328
0.778	91.7918
0.772	91.8708
0.766	91.764
0.76	91.7654
0.754	91.7285
0.748	91.734
0.742	91.7125
0.736	91.6962
0.73	91.726
0.724	91.693
0.718	91.7177
0.712	91.6882
0.706	91.7001
0.7	91.6835
0.694	91.6544
0.688	91.6719
0.682	91.6317
0.676	91.6568
0.67	91.6962
0.664	91.6848
0.658	91.6574
0.652	91.6466
0.646	91.6342
0.64	91.6267
0.634	91.6006
0.628	91.5563
0.622	91.5567
0.616	91.5402
0.61	91.5079
0.604	91.4945
0.598	91.5022
0.592	91.5372
0.586	91.4616
0.58	91.4418
0.574	91.3993
0.568	91.3616
0.562	91.3187
0.556	91.1782
0.55	91.0992
0.544	91.092
0.538	90.972
0.532	90.8665
0.526	90.7578
0.52	90.5875
0.514	90.613
0.508	90.4097
0.502	90.2921
0.496	90.0987
0.49	89.885
0.484	89.7961
0.478	89.5339
0.472	89.3403
0.466	89.0794
0.46	88.8627
0.454	88.6898
0.448	88.5573
0.442	88.2733
0.436	88.1251
0.43	87.9818
0.424	87.8395
0.418	87.5303
0.412	87.3507
0.406	87.0458
0.4	86.8445
