Name: Cookeite LiAl_4(Si_3Al)O_10(OH)_8
Type: Mineral
Class: Silicates
Subclass: Phyllosilicates
Particle Size: 45-125um
Sample No.: PS-9A
Owner: JPL
Origin: USA, Arkansas, Pulaski County.
Measurement: Hemispherical reflectance
X Units: Wavelength (micrometers)
Y Units: Reflectance (percent)
wavelength	value
2.5	28.4978
2.494	28.6158
2.488	28.7555
2.482	28.9517
2.476	29.3662
2.47	29.5706
2.464	29.8179
2.458	29.9206
2.452	29.7642
2.446	29.7817
2.44	29.8978
2.434	30.1296
2.428	30.4748
2.422	30.8849
2.416	31.2309
2.41	31.2354
2.404	31.1257
2.398	30.9132
2.392	30.4277
2.386	29.7483
2.38	29.023
2.374	28.1636
2.368	27.411
2.362	26.9784
2.356	27.0424
2.35	27.8812
2.344	29.0967
2.338	30.4707
2.332	31.7823
2.326	32.8903
2.32	33.9049
2.314	35.0314
2.308	36.107
2.302	37.0864
2.296	38.0453
2.29	38.6725
2.284	39.0673
2.278	39.1191
2.272	38.9106
2.266	38.3726
2.26	37.764
2.254	37.2735
2.248	36.9149
2.242	36.7263
2.236	36.6412
2.23	36.1259
2.224	34.98
2.218	33.3621
2.212	32.7364
2.206	33.1049
2.2	33.7532
2.194	33.6505
2.188	33.1884
2.182	33.0381
2.176	33.6351
2.17	35.2994
2.164	37.9328
2.158	41.2279
2.152	44.6997
2.146	47.3476
2.14	48.9065
2.134	49.8424
2.128	50.2512
2.122	50.3879
2.116	50.3872
2.11	50.3071
2.104	50.2099
2.098	50.2372
2.092	50.2695
2.086	50.3525
2.08	50.4751
2.074	50.6183
2.068	50.623
2.062	50.574
2.056	50.3363
2.05	50.0691
2.044	49.7538
2.038	49.532
2.032	49.353
2.026	49.2974
2.02	49.2848
2.014	49.4526
2.008	49.6664
2.002	49.9376
1.996	50.2426
1.99	50.7319
1.984	51.2221
1.978	51.6873
1.972	52.1653
1.966	52.5641
1.96	53.0126
1.954	53.1606
1.948	53.291
1.942	53.4043
1.936	53.349
1.93	53.4201
1.924	53.2509
1.918	53.1389
1.912	53.0688
1.906	53.2333
1.9	53.6815
1.894	54.4195
1.888	54.9853
1.882	55.4322
1.876	55.5501
1.87	55.7426
1.864	55.7976
1.858	55.6232
1.852	55.2165
1.846	54.6016
1.84	54.3323
1.834	54.3952
1.828	54.5544
1.822	54.7559
1.816	55.056
1.81	55.4598
1.804	55.7978
1.798	56.0086
1.792	56.2464
1.786	56.4294
1.78	56.5871
1.774	56.7509
1.768	56.8515
1.762	56.9476
1.756	56.9957
1.75	57.0722
1.744	57.161
1.738	57.1538
1.732	57.1615
1.726	57.12
1.72	57.0222
1.714	56.9185
1.708	56.9085
1.702	56.6873
1.696	56.6007
1.69	56.4682
1.684	56.3794
1.678	56.2043
1.672	56.0121
1.666	55.8588
1.66	55.5688
1.654	55.4152
1.648	55.1953
1.642	54.9027
1.636	54.6435
1.63	54.3388
1.624	54.1484
1.618	53.871
1.612	53.5854
1.606	53.4463
1.6	53.3663
1.594	53.2141
1.588	53.1183
1.582	53.1217
1.576	53.2337
1.57	53.4897
1.564	53.7799
1.558	54.0685
1.552	54.4267
1.546	54.6707
1.54	54.9337
1.534	55.1118
1.528	55.3137
1.522	55.4266
1.516	55.3049
1.51	55.1714
1.504	54.8223
1.498	54.395
1.492	54.0031
1.486	53.6212
1.48	53.3131
1.474	53.1227
1.468	53.0144
1.462	53.076
1.456	53.1924
1.45	53.194
1.444	52.8998
1.438	52.2555
1.432	51.5349
1.426	51.5295
1.42	51.1674
1.414	48.2134
1.408	45.7873
1.402	44.5642
1.396	46.5223
1.39	49.2971
1.384	53.1625
1.378	55.8143
1.372	56.5231
1.366	56.9726
1.36	57.2164
1.354	57.4305
1.348	57.6484
1.342	57.6919
1.336	57.5635
1.33	57.5031
1.324	57.509
1.318	57.5409
1.312	57.6878
1.306	57.7591
1.3	57.8142
1.294	57.9564
1.288	57.9545
1.282	58.0205
1.276	58.0946
1.27	58.1344
1.264	58.0933
1.258	58.2212
1.252	58.1944
1.246	58.1745
1.24	58.1078
1.234	58.1529
1.228	58.1617
1.222	58.1614
1.216	58.1722
1.21	58.2114
1.204	58.1604
1.198	58.179
1.192	58.1778
1.186	58.1799
1.18	58.0902
1.174	58.0768
1.168	58.0813
1.162	58.05
1.156	57.9888
1.15	58.0062
1.144	57.9682
1.138	58.0036
1.132	57.8801
1.126	57.799
1.12	57.8187
1.114	57.7532
1.108	57.7115
1.102	57.7175
1.096	57.6938
1.09	57.6189
1.084	57.4854
1.078	57.5629
1.072	57.5108
1.066	57.4912
1.06	57.3865
1.054	57.4117
1.048	57.3605
1.042	57.3131
1.036	57.2895
1.03	57.1661
1.024	57.2692
1.018	57.1328
1.012	57.1261
1.006	57.0918
1	57.0168
0.994	57.0077
0.988	56.9434
0.982	56.8886
0.976	56.8229
0.97	56.7611
0.964	56.5399
0.958	56.4817
0.952	56.6042
0.946	56.7229
0.94	56.769
0.934	56.8773
0.928	56.7538
0.922	56.7703
0.916	56.7719
0.91	56.697
0.904	56.6254
0.898	56.6989
0.892	56.666
0.886	56.5816
0.88	56.5221
0.874	56.4667
0.868	56.3942
0.862	56.3428
0.856	56.9895
0.85	56.9709
0.844	57.0298
0.838	56.9822
0.832	57.0032
0.826	57.0507
0.82	57.0193
0.814	57.0662
0.808	57.1557
0.802	57.1836
0.796	57.1622
0.79	57.1646
0.784	57.2084
0.778	57.206
0.772	57.2294
0.766	57.1861
0.76	57.1989
0.754	57.1702
0.748	57.1637
0.742	57.1362
0.736	57.0798
0.73	57.0486
0.724	56.9791
0.718	56.915
0.712	56.835
0.706	56.7279
0.7	56.6262
0.694	56.5212
0.688	56.4273
0.682	56.3171
0.676	56.2257
0.67	56.1001
0.664	55.9808
0.658	55.8669
0.652	55.7559
0.646	55.6508
0.64	55.5474
0.634	55.4435
0.628	55.3467
0.622	55.2331
0.616	55.136
0.61	55.0331
0.604	54.9339
0.598	54.8513
0.592	54.7447
0.586	54.5945
0.58	54.4229
0.574	54.1851
0.568	53.8845
0.562	53.5547
0.556	53.1473
0.55	52.67
0.544	52.0885
0.538	51.4476
0.532	50.7219
0.526	49.9338
0.52	49.115
0.514	48.2399
0.508	47.383
0.502	46.5317
0.496	45.694
0.49	44.927
0.484	44.2694
0.478	43.7322
0.472	43.3375
0.466	42.976
0.46	42.6117
0.454	42.143
0.448	41.5033
0.442	40.5257
0.436	39.278
0.43	37.9238
0.424	36.721
0.418	35.6375
0.412	34.6623
0.406	33.7947
0.4	32.8531
