Name: Chalcocite Cu_2S
Type: Mineral
Class: Sulfides
Particle Size: 125-500um
Sample No.: S-8A
Owner: JPL
Origin: USA, Alaska, Kennecott.
Measurement: Hemispherical reflectance
X Units: Wavelength (micrometers)
Y Units: Reflectance (percent)
wavelength	value
2.5	6.44555
2.494	6.21489
2.488	6.16104
2.482	6.31079
2.476	6.30179
2.47	6.50638
2.464	6.38697
2.458	6.37305
2.452	6.38741
2.446	6.38376
2.44	6.46399
2.434	6.42048
2.428	6.32485
2.422	6.36994
2.416	6.34812
2.41	6.29762
2.404	6.42946
2.398	6.29573
2.392	6.40199
2.386	6.38781
2.38	6.34511
2.374	6.40178
2.368	6.39561
2.362	6.40116
2.356	6.30885
2.35	6.33981
2.344	6.3387
2.338	6.35489
2.332	6.3241
2.326	6.31682
2.32	6.28217
2.314	6.31345
2.308	6.25274
2.302	6.2511
2.296	6.25995
2.29	6.27247
2.284	6.24415
2.278	6.22265
2.272	6.21831
2.266	6.22589
2.26	6.23505
2.254	6.28274
2.248	6.22571
2.242	6.19542
2.236	6.22698
2.23	6.19917
2.224	6.26449
2.218	6.17384
2.212	6.19019
2.206	6.1872
2.2	6.16826
2.194	6.13021
2.188	6.17268
2.182	6.11578
2.176	6.15409
2.17	6.1935
2.164	6.19378
2.158	6.16152
2.152	6.19077
2.146	6.18105
2.14	6.1565
2.134	6.12833
2.128	6.12035
2.122	6.08724
2.116	6.06871
2.11	6.04847
2.104	5.97457
2.098	5.95228
2.092	5.95707
2.086	5.94478
2.08	5.94937
2.074	5.95332
2.068	5.9284
2.062	5.98022
2.056	5.89004
2.05	5.95187
2.044	5.92948
2.038	5.92068
2.032	5.89589
2.026	5.89774
2.02	5.9119
2.014	5.84761
2.008	5.88296
2.002	5.85274
1.996	5.82962
1.99	5.82389
1.984	5.87618
1.978	5.88166
1.972	5.82615
1.966	5.70163
1.96	5.77243
1.954	5.78951
1.948	5.81107
1.942	5.77468
1.936	5.71598
1.93	5.77679
1.924	5.69708
1.918	5.75315
1.912	5.67615
1.906	5.70415
1.9	5.69785
1.894	5.70415
1.888	5.70311
1.882	5.74032
1.876	5.70059
1.87	5.59335
1.864	5.74863
1.858	5.68613
1.852	5.73781
1.846	5.74651
1.84	5.68815
1.834	5.74642
1.828	5.76863
1.822	5.7337
1.816	5.7478
1.81	5.73691
1.804	5.80032
1.798	5.76142
1.792	5.74834
1.786	5.77866
1.78	5.72304
1.774	5.73343
1.768	5.73926
1.762	5.69725
1.756	5.73947
1.75	5.67485
1.744	5.73026
1.738	5.74625
1.732	5.84318
1.726	5.74019
1.72	5.73625
1.714	5.73642
1.708	5.69374
1.702	5.79306
1.696	5.81323
1.69	5.78397
1.684	5.74777
1.678	5.74383
1.672	5.74138
1.666	5.79223
1.66	5.92389
1.654	5.80317
1.648	5.79411
1.642	5.96906
1.636	5.79073
1.63	5.81388
1.624	5.8715
1.618	5.8038
1.612	5.77821
1.606	5.83642
1.6	5.80736
1.594	5.88098
1.588	5.84377
1.582	5.82249
1.576	5.82471
1.57	5.84134
1.564	5.85044
1.558	5.79982
1.552	5.79693
1.546	5.82401
1.54	5.84089
1.534	5.84669
1.528	5.8127
1.522	5.79636
1.516	5.81927
1.51	5.85501
1.504	5.80051
1.498	5.84695
1.492	5.83654
1.486	5.87199
1.48	5.85764
1.474	5.87247
1.468	5.89854
1.462	5.8836
1.456	5.8808
1.45	5.8358
1.444	5.80715
1.438	5.86703
1.432	5.87188
1.426	5.85563
1.42	5.90455
1.414	5.91124
1.408	5.83862
1.402	5.96419
1.396	5.87557
1.39	5.91742
1.384	5.93103
1.378	5.89554
1.372	5.81149
1.366	5.91186
1.36	5.91765
1.354	5.93106
1.348	5.98912
1.342	5.90249
1.336	5.99005
1.33	6.06244
1.324	6.00392
1.318	6.03876
1.312	6.04558
1.306	6.00074
1.3	6.02764
1.294	6.06463
1.288	6.01379
1.282	6.07004
1.276	6.05973
1.27	6.10971
1.264	6.12891
1.258	6.13361
1.252	6.12932
1.246	6.14121
1.24	6.10938
1.234	6.13743
1.228	6.0919
1.222	6.16541
1.216	6.22043
1.21	6.18067
1.204	6.22584
1.198	6.24572
1.192	6.22387
1.186	6.27242
1.18	6.2479
1.174	6.25733
1.168	6.27783
1.162	6.28768
1.156	6.30117
1.15	6.34997
1.144	6.23775
1.138	6.28302
1.132	6.34387
1.126	6.34277
1.12	6.33691
1.114	6.39621
1.108	6.39787
1.102	6.47083
1.096	6.43971
1.09	6.38705
1.084	6.37283
1.078	6.45794
1.072	6.46178
1.066	6.52707
1.06	6.4059
1.054	6.42349
1.048	6.34389
1.042	6.35682
1.036	6.24547
1.03	6.32849
1.024	6.32596
1.018	6.28418
1.012	6.23632
1.006	6.22899
1	6.19591
0.994	6.13884
0.988	6.1349
0.982	6.18355
0.976	6.07342
0.97	6.11546
0.964	6.08536
0.958	5.9488
0.952	6.09116
0.946	6.05606
0.94	5.94645
0.934	5.97229
0.928	5.95427
0.922	5.97532
0.916	5.87212
0.91	5.8722
0.904	5.85893
0.898	5.83983
0.892	5.87358
0.886	5.8652
0.88	5.822
0.874	5.82185
0.868	5.89365
0.862	5.79707
0.856	6.06685
0.85	6.06041
0.844	6.06968
0.838	6.06561
0.832	6.07052
0.826	6.08147
0.82	6.07074
0.814	6.08118
0.808	6.07524
0.802	6.08073
0.796	6.08485
0.79	6.09057
0.784	6.09234
0.778	6.10008
0.772	6.10295
0.766	6.11079
0.76	6.10218
0.754	6.11567
0.748	6.12062
0.742	6.12442
0.736	6.12459
0.73	6.1304
0.724	6.13476
0.718	6.13753
0.712	6.13786
0.706	6.14234
0.7	6.14764
0.694	6.15064
0.688	6.15959
0.682	6.16397
0.676	6.17063
0.67	6.1784
0.664	6.19013
0.658	6.20537
0.652	6.21875
0.646	6.23109
0.64	6.24601
0.634	6.25996
0.628	6.28071
0.622	6.29798
0.616	6.31444
0.61	6.33143
0.604	6.34533
0.598	6.35994
0.592	6.37248
0.586	6.37689
0.58	6.38135
0.574	6.38215
0.568	6.38728
0.562	6.39125
0.556	6.39109
0.55	6.40223
0.544	6.41496
0.538	6.43106
0.532	6.44688
0.526	6.47048
0.52	6.49437
0.514	6.52145
0.508	6.54576
0.502	6.567
0.496	6.59302
0.49	6.61263
0.484	6.62765
0.478	6.65629
0.472	6.68149
0.466	6.70763
0.46	6.73089
0.454	6.75633
0.448	6.76778
0.442	6.77635
0.436	6.78533
0.43	6.78718
0.424	6.79035
0.418	6.79285
0.412	6.79757
0.406	6.81414
0.4	6.83387
