Name: Cerussite PbCO_3
Type: Mineral
Class: Carbonates
Particle Size: 0-45um
Sample No.: C-10A
Owner: JPL
Origin: USA, Arizona, Flux Mine.
Measurement: Hemispherical reflectance
X Units: Wavelength (micrometers)
Y Units: Reflectance (percent)
wavelength	value
2.5	81.7485
2.494	81.08
2.488	80.5556
2.482	80.1447
2.476	79.8475
2.47	79.5362
2.464	79.5178
2.458	79.4317
2.452	79.6681
2.446	80.1193
2.44	80.3192
2.434	80.7148
2.428	80.8152
2.422	81.0322
2.416	81.3901
2.41	81.9047
2.404	82.4297
2.398	82.9605
2.392	83.3466
2.386	83.8749
2.38	84.4429
2.374	84.889
2.368	85.4058
2.362	85.9081
2.356	86.3237
2.35	86.6985
2.344	87.1499
2.338	87.5184
2.332	87.8113
2.326	88.0686
2.32	88.3377
2.314	88.5787
2.308	88.8486
2.302	89.0627
2.296	89.2558
2.29	89.3373
2.284	89.5162
2.278	89.5757
2.272	89.6366
2.266	89.5797
2.26	89.6333
2.254	89.573
2.248	89.6784
2.242	89.7828
2.236	89.8516
2.23	90.0198
2.224	90.2456
2.218	90.6099
2.212	90.775
2.206	91.0548
2.2	91.3227
2.194	91.4176
2.188	91.6519
2.182	91.8146
2.176	91.97
2.17	92.0744
2.164	92.3903
2.158	92.5654
2.152	92.6358
2.146	92.6077
2.14	92.6384
2.134	92.4481
2.128	92.3299
2.122	91.9354
2.116	91.5746
2.11	91.2203
2.104	90.8735
2.098	90.4957
2.092	90.3508
2.086	90.136
2.08	90.1968
2.074	90.4665
2.068	90.6698
2.062	90.8452
2.056	91.0821
2.05	91.2126
2.044	91.3565
2.038	91.4219
2.032	91.4641
2.026	91.5746
2.02	91.5827
2.014	91.5573
2.008	91.5098
2.002	91.4972
1.996	91.3031
1.99	91.0821
1.984	90.895
1.978	90.8022
1.972	90.7871
1.966	90.6286
1.96	90.5846
1.954	90.6419
1.948	90.6645
1.942	90.7334
1.936	90.7833
1.93	90.7816
1.924	90.9945
1.918	91.2031
1.912	91.3738
1.906	91.5739
1.9	91.7768
1.894	92.0016
1.888	92.2426
1.882	92.476
1.876	92.647
1.87	92.6834
1.864	92.724
1.858	92.7989
1.852	92.8147
1.846	92.7812
1.84	92.8425
1.834	92.8155
1.828	92.815
1.822	92.9118
1.816	92.8348
1.81	92.8764
1.804	92.8864
1.798	93.0064
1.792	92.9583
1.786	92.9298
1.78	92.9849
1.774	92.9867
1.768	92.933
1.762	92.9462
1.756	93.0089
1.75	93.0392
1.744	93.1216
1.738	93.1501
1.732	93.1549
1.726	93.1597
1.72	93.1983
1.714	93.1369
1.708	93.1443
1.702	93.2126
1.696	93.0874
1.69	93.2003
1.684	93.1152
1.678	93.2336
1.672	93.1072
1.666	93.1454
1.66	93.2214
1.654	93.1722
1.648	93.1347
1.642	93.2357
1.636	93.2176
1.63	93.1255
1.624	93.2284
1.618	93.1645
1.612	93.1229
1.606	93.2625
1.6	93.2398
1.594	93.2337
1.588	93.2085
1.582	93.266
1.576	93.2828
1.57	93.279
1.564	93.2266
1.558	93.1819
1.552	93.2397
1.546	93.1009
1.54	93.1243
1.534	93.0982
1.528	93.0853
1.522	93.1132
1.516	93.1142
1.51	93.153
1.504	92.9659
1.498	92.9986
1.492	93.0346
1.486	93.0081
1.48	93.0218
1.474	92.9338
1.468	93.0323
1.462	92.9824
1.456	92.9025
1.45	92.9266
1.444	92.9266
1.438	92.9605
1.432	92.9749
1.426	92.9504
1.42	92.9869
1.414	92.9558
1.408	92.9646
1.402	93.0354
1.396	93.0879
1.39	93.1933
1.384	93.2869
1.378	93.1854
1.372	93.2175
1.366	93.2792
1.36	93.207
1.354	93.1782
1.348	93.1553
1.342	93.1675
1.336	93.0946
1.33	93.1656
1.324	93.2135
1.318	93.2032
1.312	93.1372
1.306	93.1678
1.3	93.2016
1.294	93.1632
1.288	93.0812
1.282	93.1083
1.276	93.1088
1.27	93.0933
1.264	93.0638
1.258	93.0967
1.252	93.1062
1.246	93.0329
1.24	93.0164
1.234	93.012
1.228	93.0268
1.222	93.0777
1.216	93.0022
1.21	93.018
1.204	93.0001
1.198	93.0644
1.192	92.982
1.186	93.0504
1.18	93.0295
1.174	92.9861
1.168	93.0161
1.162	92.9966
1.156	93.0165
1.15	93.0474
1.144	93.0467
1.138	93.0471
1.132	92.98
1.126	93.0197
1.12	92.981
1.114	92.978
1.108	93.0415
1.102	93.0161
1.096	93.001
1.09	92.9763
1.084	92.9826
1.078	92.9783
1.072	92.9093
1.066	92.962
1.06	92.8256
1.054	92.9632
1.048	92.9604
1.042	92.935
1.036	92.9769
1.03	92.9219
1.024	92.9193
1.018	92.9458
1.012	92.9013
1.006	93.0133
1	92.9288
0.994	92.8523
0.988	92.8461
0.982	92.88
0.976	92.8457
0.97	92.9013
0.964	92.8015
0.958	92.8754
0.952	92.8563
0.946	92.9142
0.94	92.8736
0.934	92.8359
0.928	92.8061
0.922	92.8936
0.916	92.7945
0.91	92.8933
0.904	92.8623
0.898	92.8703
0.892	92.8046
0.886	92.8028
0.88	92.7709
0.874	92.7719
0.868	92.7492
0.862	92.7833
0.856	92.7268
0.85	92.7977
0.844	92.758
0.838	92.7793
0.832	92.7918
0.826	92.7597
0.82	92.738
0.814	92.7244
0.808	92.7458
0.802	92.7141
0.796	92.7057
0.79	92.6192
0.784	92.6036
0.778	92.6317
0.772	92.5563
0.766	92.5519
0.76	92.497
0.754	92.5074
0.748	92.4725
0.742	92.4056
0.736	92.3545
0.73	92.3073
0.724	92.2926
0.718	92.28
0.712	92.2419
0.706	92.1478
0.7	92.1066
0.694	92.0614
0.688	91.9933
0.682	92.0002
0.676	91.9387
0.67	91.9004
0.664	91.8554
0.658	91.7847
0.652	91.7207
0.646	91.6688
0.64	91.6052
0.634	91.5332
0.628	91.4585
0.622	91.3868
0.616	91.2974
0.61	91.1915
0.604	91.0883
0.598	90.9807
0.592	90.8726
0.586	90.6206
0.58	90.394
0.574	90.2859
0.568	90.0739
0.562	89.9425
0.556	89.6677
0.55	89.463
0.544	89.2081
0.538	88.9494
0.532	88.6951
0.526	88.4629
0.52	88.172
0.514	87.9115
0.508	87.6376
0.502	87.3554
0.496	87.0683
0.49	86.8214
0.484	86.5856
0.478	86.32
0.472	86.0775
0.466	85.8383
0.46	85.6451
0.454	85.4366
0.448	85.1696
0.442	84.8451
0.436	84.4817
0.43	84.087
0.424	83.7307
0.418	83.3978
0.412	83.1149
0.406	82.7857
0.4	82.4203
