Name: Malachite Cu_2(CO_3)(OH)_2
Type: Mineral
Class: Carbonates
Particle Size: 45-125um
Sample No.: C-7A
Owner: JPL
Wavelength Range: VNIR-SWIR
Origin: USA, California, San Bernadino County, Near Valley Wells
Measurement: Hemispherical reflectance
X Units: Wavelength (micrometers)
Y Units: Reflectance (percent)
wavelength	value
0.4	15.65
0.403	17.55
0.406	18.82
0.409	20.09
0.412	21.22
0.415	22.26
0.418	23.41
0.421	24.26
0.424	25.13
0.427	25.99
0.43	26.84
0.433	27.55
0.436	28.18
0.439	29.12
0.442	29.82
0.445	30.65
0.448	31.39
0.451	32.22
0.454	33.19
0.457	34.1
0.46	34.85
0.463	36.03
0.466	37.14
0.469	38.08
0.472	39.28
0.475	40.38
0.478	41.27
0.481	42.33
0.484	43.2
0.487	44.15
0.49	44.87
0.493	45.74
0.496	46.42
0.499	47.1
0.502	47.64
0.505	48.2
0.508	48.66
0.511	48.92
0.514	49.18
0.517	49.32
0.52	49.27
0.523	49.3
0.526	49.06
0.529	48.66
0.532	48.14
0.535	47.53
0.538	46.8
0.541	46.07
0.544	45.08
0.547	43.88
0.55	42.78
0.553	41.57
0.556	40.16
0.559	39.07
0.562	37.46
0.565	36.02
0.568	34.52
0.571	33.02
0.574	31.43
0.577	29.95
0.58	28.69
0.583	27.26
0.586	25.96
0.589	24.65
0.592	23.41
0.595	22.25
0.598	21.17
0.601	20.23
0.604	19.11
0.607	18.18
0.61	17.36
0.613	16.53
0.616	15.62
0.619	14.88
0.622	14.14
0.625	13.46
0.628	12.87
0.631	12.35
0.634	11.73
0.637	11.23
0.64	10.77
0.643	10.27
0.646	10
0.649	9.49
0.652	9.13
0.655	8.77
0.658	8.53
0.661	8.22
0.664	7.87
0.667	7.59
0.67	7.37
0.673	7.25
0.676	7.08
0.679	6.84
0.682	6.58
0.685	6.48
0.688	6.43
0.691	6.21
0.694	6.16
0.697	5.92
0.7	5.8
0.703	5.62
0.706	5.58
0.709	5.44
0.712	5.4
0.715	5.28
0.718	5.22
0.721	5.16
0.724	5.11
0.727	5.04
0.73	4.93
0.733	4.83
0.736	4.93
0.739	4.93
0.742	4.82
0.745	4.87
0.748	4.75
0.751	4.81
0.754	4.82
0.757	4.76
0.76	4.76
0.763	4.75
0.766	4.74
0.769	4.75
0.772	4.8
0.775	4.86
0.778	4.86
0.781	4.8
0.784	4.81
0.787	4.97
0.79	4.85
0.793	4.96
0.796	5.15
0.799	5.11
0.808	5.49
0.82	5.56
0.832	5.74
0.844	5.87
0.856	6.11
0.868	6.31
0.88	6.54
0.892	6.84
0.904	7.36
0.916	7.77
0.928	8.3
0.94	8.82
0.952	9.41
0.964	9.96
0.976	10.67
0.988	11.22
1	11.76
1.012	12.5
1.024	13.06
1.036	13.64
1.048	14.09
1.06	14.4
1.072	14.79
1.084	15.08
1.096	15.35
1.108	15.52
1.12	15.67
1.132	15.8
1.144	15.85
1.156	15.92
1.168	16.15
1.18	16.26
1.192	16.39
1.204	16.51
1.216	16.7
1.228	16.87
1.24	17.11
1.252	17.36
1.264	17.6
1.276	17.89
1.288	18.17
1.3	18.47
1.312	18.76
1.324	19.04
1.336	19.3
1.348	19.51
1.36	19.88
1.372	20.07
1.384	20.12
1.396	19.7
1.408	18.82
1.42	19.51
1.432	20.3
1.444	20.95
1.456	21.51
1.468	22.13
1.48	22.93
1.492	23.63
1.504	24.32
1.516	25.04
1.528	25.74
1.54	26.4
1.552	27.12
1.564	27.83
1.576	28.53
1.588	29.2
1.6	30.03
1.612	30.84
1.624	31.61
1.636	32.43
1.648	33.09
1.66	33.88
1.672	34.59
1.684	35.1
1.696	35.84
1.708	36.63
1.72	37.22
1.732	37.91
1.744	38.57
1.756	39.11
1.768	39.74
1.78	40.33
1.792	40.96
1.804	41.55
1.816	42.04
1.828	42.47
1.84	42.61
1.852	42.37
1.864	40.99
1.876	36.94
1.888	31.31
1.9	25.8
1.912	23.72
1.924	24.53
1.936	25.91
1.948	27.35
1.96	28.67
1.972	30.18
1.984	31.85
1.996	33.47
2.008	34.89
2.02	36.17
2.032	37.33
2.044	38.46
2.056	39.3
2.068	39.96
2.08	40.67
2.092	41.36
2.104	41.91
2.116	42.48
2.128	42.93
2.14	42.92
2.152	42.44
2.164	41.72
2.176	40.49
2.188	38.73
2.2	36.53
2.212	34.53
2.224	33.14
2.236	31
2.248	28.14
2.26	26.05
2.272	25.89
2.284	26.99
2.296	28.48
2.308	29.6
2.32	29.81
2.332	28.78
2.344	27.16
2.356	26
2.368	25.39
2.38	24.71
2.392	23.75
2.404	23.08
2.416	22.67
2.428	22.38
2.44	22.21
2.452	22.1
2.464	21.94
2.476	21.72
2.488	21.58
2.5	21.35
