Name: Oolitic Limestone
Type: Rock
Class: Sedimentary
Subclass: Limestone
Particle Size: Solid surface
Sample No.: Ward72.txt
Owner: JPL
Origin: Ward's Collection of American Rocks.  Sample locality - Bedford, Lawrence County, Indiana.
Description: A grayish rock showing oolitic texture.  Micro fossils are
Measurement: Hemispherical reflectance
X Units: Wavelength (micrometers)
Y Units: Reflectance (percent)
wavelength	value
15.3871	5.41139
15.118	6.01275
14.8581	5.91986
14.6069	6.49954
14.3642	5.81138
14.1293	4.20125
13.9021	2.07512
13.682	5.23238
13.4687	6.90793
13.2621	7.39793
13.0616	6.60167
12.8672	6.44172
12.6784	6.40146
12.4951	6.96693
12.317	7.40412
12.1439	7.65435
11.9757	7.59775
11.812	5.48908
11.6527	6.87212
11.4977	7.54758
11.3468	14.5296
11.1997	16.1198
11.0564	14.2572
10.9168	13.4105
10.7806	11.607
10.6478	10.3603
10.5182	10.2392
10.3917	10.8772
10.2683	10.6865
10.1477	9.73241
10.0299	9.12673
9.9148	8.68455
9.8024	8.81811
9.6925	9.7685
9.585	10.2946
9.4798	10.9029
9.377	10.3482
9.2763	10.1653
9.1778	9.76454
9.0814	10.4118
8.987	10.3591
8.8945	10.1614
8.8039	9.4518
8.7151	8.78872
8.6281	7.55951
8.5428	7.32185
8.4592	7.63021
8.3772	8.36309
8.2967	9.3219
8.2179	9.85672
8.1404	10.0668
8.0645	9.69351
7.9899	9.98354
7.9167	9.74536
7.8449	10.0697
7.7743	9.88318
7.705	9.82843
7.6369	8.91584
7.57	8.82362
7.5043	8.9744
7.4397	8.91705
7.3762	8.85241
7.3138	8.81634
7.2524	8.92007
7.1921	9.99863
7.1327	12.0196
7.0743	15.1485
7.0169	15.3678
6.9604	15.7464
6.9047	16.047
6.85	16.6271
6.7962	17.6552
6.7431	18.6716
6.6909	21.1738
6.6395	24.2084
6.5889	27.3271
6.539	28.1688
6.49	27.5419
6.4416	23.6588
6.3939	15.5956
6.347	9.85306
6.3007	5.94797
6.2551	5.10505
6.2101	4.03069
6.1658	3.35149
6.1222	3.0245
6.0791	2.82519
6.0366	2.9544
5.9948	3.02605
5.9535	2.9989
5.9127	3.1373
5.8726	3.13053
5.8329	3.03688
5.7938	2.73493
5.7552	2.77435
5.7172	2.77262
5.6796	3.24802
5.6425	3.75956
5.6059	2.78384
5.5698	1.38443
5.5341	2.815
5.4989	5.25338
5.4641	7.22791
5.4298	9.33524
5.3959	11.4842
5.3624	13.7232
5.3294	15.7868
5.2967	18.0959
5.2644	19.7135
5.2326	21.4684
5.2011	22.721
5.17	23.8025
5.1392	24.5815
5.1088	20.278
5.0788	25.0324
5.0491	26.5565
5.0198	26.4917
4.9908	26.4212
4.9622	26.2226
4.9338	26.2448
4.9058	26.2436
4.8781	26.6141
4.8508	26.8969
4.8237	26.9329
4.7969	26.897
4.7704	26.2148
4.7443	23.946
4.7184	18.9233
4.6927	13.12
4.6674	12.0531
4.6423	14.7666
4.6175	19.1399
4.593	20.9454
4.5687	21.5177
4.5447	21.7015
4.5209	21.9647
4.4974	22.8053
4.4741	24.9442
4.451	26.813
4.4282	28.8741
4.4057	29.9699
4.3833	30.5736
4.3612	29.9836
4.3393	28.6164
4.3176	28.3619
4.2962	27.9203
4.2749	24.7729
4.2539	27.0781
4.233	27.9887
4.2124	27.9246
4.192	27.4383
4.1717	26.4962
4.1517	25.0559
4.1319	23.0961
4.1122	20.406
4.0927	18.3755
4.0734	15.7587
4.0543	12.7482
4.0354	8.28899
4.0166	5.91451
3.9981	4.03982
3.9796	3.10554
3.9614	3.3477
3.9433	4.70599
3.9254	5.6629
3.9077	6.06643
3.8901	6.15966
3.8726	6.21396
3.8554	6.61202
3.8382	7.23532
3.8213	9.32222
3.8045	12.7134
3.7878	20.4314
3.7713	24.683
3.7549	26.5649
3.7386	27.9686
3.7225	29.5718
3.7066	29.8136
3.6907	30.0321
3.675	30.3241
3.6595	29.555
3.644	29.0155
3.6287	28.2472
3.6136	27.1224
3.5985	25.2514
3.5836	22.004
3.5688	18.9777
3.5541	18.1457
3.5396	14.716
3.5251	10.124
3.5108	7.16496
3.4966	6.19834
3.4825	5.19928
3.4685	6.0957
3.4547	7.74079
3.4409	8.28195
3.4273	7.83945
3.4137	7.98305
3.4003	7.61055
3.387	7.48369
3.3738	7.28346
3.3606	7.17502
3.3476	6.41441
3.3347	12.198
3.3219	15.872
3.3092	17.7731
3.2965	18.5155
3.284	19.2621
3.2716	19.4981
3.2593	20.2305
3.247	20.1088
3.2348	19.7114
3.2228	19.5002
3.2108	19.7012
3.1989	19.5507
3.1871	19.1159
3.1754	18.6428
3.1638	17.9021
3.1523	17.0664
3.1408	16.9474
3.1294	17.0913
3.1181	16.626
3.1069	16.1537
3.0958	15.9157
3.0848	16.5153
3.0738	16.2939
3.0629	16.0867
3.0521	16.2887
3.0413	16.4429
3.0307	16.2404
3.0201	16.2688
3.0096	16.2259
2.9991	16.2011
2.9887	16.3409
2.9784	16.0449
2.9682	15.5371
2.9581	16.2502
2.948	16.2909
2.9379	15.92
2.928	16.4595
2.9181	16.313
2.9083	16.666
2.8985	16.6593
2.8888	16.5657
2.8792	17.4171
2.8697	17.8976
2.8602	18.0099
2.8507	18.1843
2.8413	18.6373
2.832	19.3233
2.8228	19.4161
2.8136	19.7215
2.8045	20.4443
2.7954	19.6399
2.7864	20.838
2.7774	21.4191
2.7685	23.4425
2.7597	24.6719
2.7509	26.6565
2.7422	29.9184
2.7335	31.2735
2.7249	36.4009
2.7163	39.4403
2.7078	43.3824
2.6994	46.8959
2.691	50.3546
2.6826	53.4045
2.6743	55.4723
2.666	57.3204
2.6578	57.997
2.6497	58.2835
2.6416	59.3395
2.6336	60.2234
2.6256	60.2293
2.6176	60.67
2.6097	59.8682
2.6018	59.8929
2.594	59.8078
2.5863	57.5351
2.5785	56.559
2.5709	55.2495
2.5633	51.7761
2.5557	45.9975
2.5481	40.8645
2.5406	35.8693
2.5332	35.9072
2.5258	38.525
2.5184	40.4314
2.5111	42.3378
2.5038	43.5061
2.4966	43.9048
2.4894	45.3369
2.4823	45.934
2.4752	48.4615
2.4681	51.2301
2.4611	53.2452
2.4541	55.7485
2.4471	57.7922
2.4402	58.5445
2.4333	61.2522
2.4265	61.8879
2.4197	63.0268
2.413	63.7559
2.4063	62.7602
2.3996	63.8613
2.3929	63.8217
2.3863	64.7782
2.3798	63.5232
2.3732	61.6641
2.3667	59.9762
2.3603	55.5234
2.3538	51.4845
2.3474	49.0399
2.3411	47.1002
2.3347	48.2895
2.3285	49.2899
2.3222	51.6875
2.316	52.8517
2.3098	53.918
2.3036	54.4168
2.2975	55.0928
2.2914	56.2178
2.2854	57.0742
2.2793	59.915
2.2733	61.3112
2.2674	62.5747
2.2614	61.9914
2.2555	65.2972
2.2497	67.0066
2.2438	67.7532
2.238	67.5031
2.2322	67.9347
2.2265	69.1541
2.2208	68.6018
2.2151	69.6009
2.2094	70.1262
2.2038	70.8206
2.1982	71.653
2.1926	71.4704
2.187	71.0481
2.1815	69.7593
2.176	70.56
2.1706	68.9896
2.1651	69.3904
2.1597	69.1923
2.1543	70.0691
2.149	69.1169
2.1436	69.9033
2.1383	69.174
2.1331	71.0056
2.1278	71.3946
2.1226	70.8155
2.1174	72.6105
2.1122	71.0853
2.1071	70.876
2.1019	70.2867
2.0968	70.5783
2.0918	70.9343
2.0867	69.6934
2.0817	73.1662
2.0767	69.2688
2.0717	70.8017
2.0667	71.6441
2.0618	71.6559
2.0569	69.7363
2.052	69.5318
2.0472	69.6131
2.0423	70.7406
2.0375	70.1111
2.0327	68.6922
2.028	69.9717
2.0232	70.1331
2.0185	67.4463
2.0138	70.6824
2.0091	67.49
2.0044	66.4973
1.9998	67.5969
