Name: Quartz SiO_2
Type: Mineral
Class: Silicates
Subclass: Tectosilicates
Particle Size: 45-125um
Sample No.: TS-1A
Owner: JPL
Origin: USA, Arkansas, Montgomery County, Mount Ida
Description: Rock crystal.
Measurement: Hemispherical reflectance
X Units: Wavelength (micrometers)
Y Units: Reflectance (percent)
wavelength	value
15.385	7.7317
15.116	6.6518
14.856	6.0714
14.605	4.6091
14.362	3.9947
14.128	4.1236
13.9	5.2901
13.68	6.1617
13.467	5.6857
13.26	6.0786
13.06	6.7893
12.866	11.4076
12.677	8.9844
12.494	11.2778
12.316	1.1428
12.143	2.0111
11.974	3.4796
11.811	4.4885
11.651	5.491
11.496	5.7697
11.345	6.3242
11.198	6.561
11.055	6.9448
10.915	7.2281
10.779	7.2706
10.647	7.2836
10.517	7.4145
10.39	7.7408
10.267	8.1293
10.146	8.487
10.029	9.268
9.914	10.0221
9.801	11.6042
9.691	13.3848
9.584	16.3348
9.479	21.9712
9.376	36.8223
9.275	51.3771
9.177	54.3828
9.08	55.5179
8.986	55.5746
8.893	54.6369
8.803	51.5775
8.714	46.8316
8.627	29.875
8.542	47.8281
8.458	49.132
8.376	47.7705
8.296	46.3218
8.217	44.5855
8.139	35.7454
8.063	22.7021
7.989	14.2945
7.916	8.0757
7.844	4.5036
7.773	2.8072
7.704	1.6679
7.636	0.7423
7.569	0.3416
7.503	0.1015
7.439	0.0415
7.375	0.0669
7.313	0.1514
7.252	0.1778
7.191	0.2481
7.132	0.3467
7.073	0.5552
7.016	0.8101
6.96	1.0936
6.904	1.3602
6.849	1.3849
6.795	1.3289
6.742	1.1878
6.69	1.1668
6.639	1.4978
6.588	1.4486
6.538	1.4506
6.489	2.6367
6.441	3.8631
6.393	3.5484
6.346	2.5011
6.3	1.8324
6.254	1.454
6.209	1.1612
6.165	1.5047
6.121	2.4545
6.078	3.5477
6.036	3.7683
5.994	3.2119
5.953	2.4911
5.912	2.5333
5.872	3.7821
5.832	5.2876
5.793	6.7777
5.755	8.2508
5.716	9.1469
5.679	7.8014
5.642	4.3568
5.605	3.1433
5.569	2.9494
5.533	3.4671
5.498	4.5989
5.463	5.7622
5.429	5.0011
5.395	2.6449
5.362	1.8659
5.329	1.7894
5.296	1.9982
5.264	2.4157
5.232	3.8751
5.2	5.6422
5.169	5.5016
5.139	5.183
5.108	5.1888
5.078	4.2592
5.049	3.9687
5.019	3.8133
4.99	4.1107
4.962	5.9592
4.933	7.7279
4.905	11.9051
4.878	21.2267
4.85	28.3489
4.823	33.2221
4.796	37.1342
4.77	40.0635
4.744	42.2911
4.718	42.7418
4.692	37.871
4.667	38.9729
4.642	45.2342
4.617	49.98
4.592	51.7807
4.568	51.5492
4.544	47.9893
4.52	40.9717
4.497	33.4569
4.474	31.1448
4.45	32.8985
4.428	35.0838
4.405	38.3494
4.383	42.8337
4.361	47.7244
4.339	51.0179
4.317	51.724
4.296	50.8009
4.274	52.0398
4.253	53.8045
4.233	53.0647
4.212	53.4413
4.191	53.572
4.171	55.3218
4.151	56.6776
4.131	58.1651
4.112	60.0685
4.092	62.0731
4.073	63.6006
4.054	64.096
4.035	63.7474
4.016	63.4456
3.998	63.6951
3.979	64.564
3.961	66.0049
3.943	67.348
3.925	68.1299
3.907	68.0819
3.89	67.2095
3.872	66.2622
3.855	65.6785
3.838	65.8786
3.821	66.7142
3.804	67.1424
3.787	66.9053
3.771	66.1112
3.754	65.2471
3.738	65.1433
3.722	65.8534
3.706	67.4084
3.69	69.4847
3.675	71.4635
3.659	72.8854
3.644	73.7047
3.628	73.8849
3.613	74.161
3.598	74.4202
3.583	74.9565
3.568	75.7296
3.554	76.5564
3.539	77.4128
3.525	78.26
3.51	78.5498
3.496	78.6435
3.482	79.6542
3.468	80.0813
3.454	80.2614
3.441	80.1154
3.427	79.4576
3.413	78.7118
3.4	79.3489
3.387	79.7597
3.373	79.452
3.36	80.5439
3.347	81.027
3.334	81.1911
3.321	81.2704
3.309	80.9093
3.296	80.6948
3.284	80.4876
3.271	80.3395
3.259	80.2446
3.247	80.1279
3.234	80.0503
3.222	79.8315
3.21	79.6882
3.199	79.4588
3.187	79.0109
3.175	78.832
3.163	78.4347
3.152	77.9595
3.14	76.7097
3.129	75.8866
3.118	75.9959
3.107	76.3701
3.095	76.5856
3.084	76.3737
3.073	75.9118
3.063	75.3072
3.052	74.2244
3.041	72.8841
3.03	71.7092
3.02	71.1504
3.009	71.4736
2.999	72.5161
2.988	72.594
2.978	71.374
2.968	66.5576
2.958	63.6425
2.948	67.9136
2.938	69.7446
2.928	70.6756
2.918	70.2372
2.908	71.0739
2.898	73.016
2.888	74.5562
2.879	74.5768
2.869	73.3497
2.86	76.0124
2.85	76.2595
2.841	76.8546
2.832	77.9748
2.822	78.4353
2.813	78.8854
2.804	79.4805
2.795	79.5838
2.786	79.9959
2.777	80.1921
2.768	81.0483
2.759	80.877
2.751	81.7544
2.742	82.8661
2.733	83.3513
2.725	84.9197
2.716	85.5697
2.707	85.9153
2.699	86.6056
2.691	87.4982
2.682	88.0277
2.674	88.488
2.666	89.4467
2.658	88.8502
2.649	88.8775
2.641	88.9376
2.633	89.168
2.625	89.0507
2.617	89.5346
2.609	89.17
2.602	89.128
2.594	89.6832
2.586	89.2452
2.578	88.9895
2.571	89.1733
2.563	89.3385
2.555	88.9683
2.548	89.2279
2.54	89.038
2.533	89.2808
2.525	89.328
2.518	89.278
2.511	89.2241
2.504	89.211
2.496	89.1359
2.489	89.3401
2.482	89.3877
2.475	89.3356
2.468	89.3617
2.461	89.3844
2.454	89.4998
2.447	89.5338
2.44	89.5375
2.433	89.5329
2.426	89.6759
2.419	89.706
2.413	89.6289
2.406	89.6835
2.399	89.6394
2.393	89.8381
2.386	89.5872
2.379	89.825
2.373	89.7792
2.366	89.7955
2.36	89.9065
2.354	89.742
2.347	89.802
2.341	89.8804
2.334	89.9426
2.328	89.9129
2.322	89.8878
2.316	89.9463
2.309	89.7762
2.303	89.9001
2.297	89.8171
2.291	89.952
2.285	89.9206
2.279	90.051
2.273	89.9293
2.267	89.8346
2.261	90.1899
2.255	90.0005
2.249	89.8444
2.244	89.8096
2.238	89.825
2.232	89.9945
2.226	89.7138
2.22	89.8587
2.215	89.7686
2.209	89.7542
2.204	89.7835
2.198	89.7331
2.192	89.7053
2.187	89.9587
2.181	89.6488
2.176	89.9326
2.17	89.8682
2.165	89.8196
2.159	89.9144
2.154	89.9507
2.149	89.9081
2.143	90.0455
2.138	90.042
2.133	90.2432
2.128	89.9944
2.122	90.0999
2.117	90.0435
2.112	89.8865
2.107	90.0622
2.102	90.134
2.097	89.9575
2.091	90.0939
2.086	89.9651
2.081	90.0831
2.076	90.1593
2.071	90.209
2.066	90.1034
2.062	90.1075
2.057	89.9231
2.052	90.2338
2.047	89.9548
2.042	89.9921
2.037	90.2437
2.032	90.0797
2.028	89.8002
2.023	90.095
2.018	90.1558
2.014	89.7327
2.009	89.8894
2.004	90.0806
