Name: Palygorskite (Mg,Al)_2Si_4O_10(OH).4H_2O
Type: Mineral
Class: Silicates
Subclass: Phyllosilicates
Particle Size: 0-45um
Sample No.: PS-4A
Owner: JPL
Origin: USA, Florida, Gadsden County.
Measurement: Hemispherical reflectance
X Units: Wavelength (micrometers)
Y Units: Reflectance (percent)
wavelength	value
2.5	37.631
2.494	38.1417
2.488	38.6441
2.482	39.2949
2.476	39.9581
2.47	40.427
2.464	40.952
2.458	41.2431
2.452	41.4255
2.446	41.5684
2.44	41.7492
2.434	42.0594
2.428	42.5245
2.422	42.9935
2.416	43.3476
2.41	43.9636
2.404	44.5292
2.398	45.2964
2.392	46.017
2.386	46.8814
2.38	47.5506
2.374	48.3043
2.368	49.1383
2.362	50.0307
2.356	50.701
2.35	51.223
2.344	51.5457
2.338	51.8751
2.332	52.3335
2.326	52.9998
2.32	53.9879
2.314	54.8611
2.308	55.619
2.302	56.2739
2.296	57.0183
2.29	57.6115
2.284	58.2273
2.278	58.8196
2.272	59.1272
2.266	59.1819
2.26	59.1714
2.254	59.1037
2.248	59.1605
2.242	59.5029
2.236	59.3616
2.23	58.2089
2.224	56.3339
2.218	55.9004
2.212	57.3986
2.206	58.9621
2.2	60.1903
2.194	61.2143
2.188	61.9124
2.182	62.3572
2.176	62.7952
2.17	63.307
2.164	63.4793
2.158	63.8942
2.152	64.0421
2.146	64.1464
2.14	64.1464
2.134	64.1191
2.128	63.9415
2.122	63.7748
2.116	63.6502
2.11	63.4649
2.104	63.2446
2.098	63.1223
2.092	62.9712
2.086	62.8769
2.08	62.7222
2.074	62.5996
2.068	62.4283
2.062	62.1468
2.056	61.8897
2.05	61.6874
2.044	61.4452
2.038	60.9865
2.032	60.6581
2.026	60.0546
2.02	59.4034
2.014	58.6917
2.008	57.8261
2.002	57.0292
1.996	56.0023
1.99	55.0333
1.984	54.0741
1.978	53.2116
1.972	52.6151
1.966	51.8991
1.96	51.2269
1.954	50.3341
1.948	49.0957
1.942	47.0706
1.936	43.7731
1.93	40.3301
1.924	38.0816
1.918	37.3827
1.912	38.2152
1.906	41.1748
1.9	46.7284
1.894	52.1897
1.888	56.7556
1.882	60.1028
1.876	62.8271
1.87	65.5982
1.864	67.1248
1.858	67.9621
1.852	68.5184
1.846	68.9254
1.84	69.1524
1.834	69.2853
1.828	69.4062
1.822	69.4673
1.816	69.4504
1.81	69.4474
1.804	69.4689
1.798	69.6102
1.792	69.6863
1.786	69.847
1.78	69.9999
1.774	70.2434
1.768	70.4361
1.762	70.6889
1.756	70.8536
1.75	71.0527
1.744	71.2527
1.738	71.2749
1.732	71.3693
1.726	71.4486
1.72	71.5891
1.714	71.6155
1.708	71.7689
1.702	71.831
1.696	71.7912
1.69	71.9383
1.684	71.8113
1.678	71.9207
1.672	71.9114
1.666	71.7599
1.66	71.8765
1.654	71.678
1.648	71.7721
1.642	71.7382
1.636	71.7491
1.63	71.6544
1.624	71.6259
1.618	71.4755
1.612	71.4233
1.606	71.3781
1.6	71.2639
1.594	71.1795
1.588	71.1184
1.582	70.9219
1.576	70.9624
1.57	70.6903
1.564	70.6302
1.558	70.478
1.552	70.3619
1.546	70.1118
1.54	69.9338
1.534	69.7784
1.528	69.58
1.522	69.2492
1.516	69.0732
1.51	68.7096
1.504	68.3121
1.498	67.8836
1.492	67.3307
1.486	66.5296
1.48	65.7372
1.474	64.8742
1.468	64.5036
1.462	64.1904
1.456	63.8337
1.45	63.2261
1.444	62.5183
1.438	62.2041
1.432	60.9686
1.426	60.5499
1.42	57.5716
1.414	59.4018
1.408	62.6459
1.402	64.792
1.396	66.7945
1.39	68.0504
1.384	68.9065
1.378	69.9844
1.372	70.7184
1.366	71.0335
1.36	71.1644
1.354	71.2798
1.348	71.3833
1.342	71.645
1.336	71.6477
1.33	71.7556
1.324	71.9317
1.318	71.9207
1.312	72.0601
1.306	72.037
1.3	71.9318
1.294	71.9416
1.288	72.0704
1.282	72.0429
1.276	72.0739
1.27	71.9729
1.264	71.9425
1.258	71.8923
1.252	71.8215
1.246	71.7862
1.24	71.6566
1.234	71.6809
1.228	71.5924
1.222	71.5439
1.216	71.4858
1.21	71.4971
1.204	71.2613
1.198	71.2911
1.192	71.143
1.186	71.1591
1.18	71.0251
1.174	70.9653
1.168	70.9132
1.162	70.8631
1.156	70.7831
1.15	70.9498
1.144	71.2358
1.138	71.225
1.132	71.126
1.126	71.2581
1.12	71.249
1.114	71.2768
1.108	71.2122
1.102	71.3529
1.096	71.2392
1.09	71.2464
1.084	71.355
1.078	71.2614
1.072	71.3409
1.066	71.3523
1.06	71.2786
1.054	71.3218
1.048	71.3982
1.042	71.3067
1.036	71.3805
1.03	71.473
1.024	71.345
1.018	71.4031
1.012	71.3496
1.006	71.3605
1	71.3208
0.994	71.2441
0.988	71.3223
0.982	71.2116
0.976	71.0901
0.97	70.9008
0.964	71.0482
0.958	71.1201
0.952	71.2547
0.946	71.2826
0.94	71.3132
0.934	71.398
0.928	71.2728
0.922	71.3436
0.916	71.4274
0.91	71.4287
0.904	71.4247
0.898	71.4239
0.892	71.433
0.886	71.4887
0.88	71.5786
0.874	71.5329
0.868	71.6226
0.862	71.7773
0.856	72.1149
0.85	72.1745
0.844	72.2187
0.838	72.2659
0.832	72.2683
0.826	72.3066
0.82	72.2417
0.814	72.2368
0.808	72.205
0.802	72.1432
0.796	72.0381
0.79	71.9368
0.784	71.818
0.778	71.7176
0.772	71.6022
0.766	71.4512
0.76	71.3268
0.754	71.2237
0.748	71.0845
0.742	70.996
0.736	70.8517
0.73	70.7316
0.724	70.6296
0.718	70.5299
0.712	70.4004
0.706	70.2462
0.7	70.1307
0.694	69.9729
0.688	69.8346
0.682	69.6694
0.676	69.5039
0.67	69.3828
0.664	69.2362
0.658	69.1067
0.652	68.9843
0.646	68.8752
0.64	68.7738
0.634	68.7102
0.628	68.6187
0.622	68.5648
0.616	68.5277
0.61	68.4756
0.604	68.4622
0.598	68.4246
0.592	68.399
0.586	68.31
0.58	68.1597
0.574	67.9572
0.568	67.7906
0.562	67.5123
0.556	67.1369
0.55	66.6848
0.544	66.2079
0.538	65.7081
0.532	65.0864
0.526	64.351
0.52	63.606
0.514	62.994
0.508	62.3851
0.502	61.7968
0.496	61.2385
0.49	60.7403
0.484	60.1949
0.478	59.5628
0.472	58.8969
0.466	58.195
0.46	57.4133
0.454	56.4779
0.448	55.4365
0.442	54.3989
0.436	53.4088
0.43	52.4556
0.424	51.4656
0.418	50.3093
0.412	49.0214
0.406	47.6868
0.4	46.2955
