Name: Biotite K(Mg,Fe^2+)_3(Al,Fe^3+)Si_3O_10(OH,F)_2
Type: Mineral
Class: Silicates
Subclass: Phyllosilicates
Particle Size: 45-125um
Sample No.: PS-23A
Owner: JPL
Origin: Unknown.
Measurement: Hemispherical reflectance
X Units: Wavelength (micrometers)
Y Units: Reflectance (percent)
wavelength	value
2.5	51.5897
2.494	51.3169
2.488	51.2581
2.482	51.1864
2.476	51.0591
2.47	51.0189
2.464	50.8635
2.458	50.8432
2.452	50.6263
2.446	50.5681
2.44	50.3836
2.434	50.2475
2.428	50.0292
2.422	49.7734
2.416	49.4909
2.41	49.195
2.404	49.0045
2.398	48.7601
2.392	48.6644
2.386	48.6929
2.38	48.7978
2.374	48.9118
2.368	48.8688
2.362	48.7434
2.356	48.4864
2.35	48.1685
2.344	47.8427
2.338	47.6161
2.332	47.5677
2.326	47.6208
2.32	47.8815
2.314	48.2189
2.308	48.5179
2.302	48.7449
2.296	48.999
2.29	49.0211
2.284	49.0208
2.278	48.9549
2.272	48.7926
2.266	48.5121
2.26	48.153
2.254	47.8435
2.248	47.8242
2.242	48.1546
2.236	48.1201
2.23	48.2422
2.224	48.2089
2.218	48.1655
2.212	48.0561
2.206	47.9895
2.2	47.8624
2.194	47.8317
2.188	47.5553
2.182	47.5814
2.176	47.4912
2.17	47.4029
2.164	47.3068
2.158	47.2111
2.152	47.1073
2.146	46.906
2.14	46.7783
2.134	46.4398
2.128	46.1731
2.122	45.8007
2.116	45.3493
2.11	45.0067
2.104	44.6648
2.098	44.429
2.092	44.2307
2.086	44.1487
2.08	43.9665
2.074	43.7586
2.068	43.6233
2.062	43.4564
2.056	43.3237
2.05	43.0742
2.044	42.9256
2.038	42.7435
2.032	42.5658
2.026	42.3239
2.02	42.1408
2.014	41.9622
2.008	41.7498
2.002	41.5502
1.996	41.4254
1.99	41.1598
1.984	40.9681
1.978	40.8101
1.972	40.6466
1.966	40.485
1.96	40.4091
1.954	40.0888
1.948	40.0104
1.942	39.8479
1.936	39.7687
1.93	39.5836
1.924	39.4636
1.918	39.2367
1.912	39.0295
1.906	38.6915
1.9	38.5
1.894	38.2019
1.888	37.9536
1.882	37.7457
1.876	37.5967
1.87	37.4066
1.864	37.1018
1.858	36.9132
1.852	36.5933
1.846	36.3962
1.84	36.1867
1.834	35.9956
1.828	35.7647
1.822	35.5213
1.816	35.2826
1.81	35.0019
1.804	34.8729
1.798	34.7344
1.792	34.4405
1.786	34.2773
1.78	34.0346
1.774	33.8556
1.768	33.6639
1.762	33.4722
1.756	33.2863
1.75	33.1121
1.744	32.8955
1.738	32.6965
1.732	32.5414
1.726	32.2463
1.72	32.0711
1.714	31.8349
1.708	31.6041
1.702	31.3808
1.696	31.1675
1.69	30.9217
1.684	30.7354
1.678	30.5638
1.672	30.2122
1.666	29.9896
1.66	29.7857
1.654	29.5443
1.648	29.4329
1.642	29.2017
1.636	28.9645
1.63	28.7957
1.624	28.6737
1.618	28.3618
1.612	28.1668
1.606	28.0379
1.6	27.8033
1.594	27.619
1.588	27.398
1.582	27.28
1.576	27.0553
1.57	26.826
1.564	26.6086
1.558	26.4992
1.552	26.2324
1.546	26.1142
1.54	25.8816
1.534	25.6891
1.528	25.5423
1.522	25.3281
1.516	25.06
1.51	24.943
1.504	24.7576
1.498	24.5848
1.492	24.4365
1.486	24.2868
1.48	24.105
1.474	23.8806
1.468	23.6719
1.462	23.5033
1.456	23.278
1.45	23.1327
1.444	22.9726
1.438	22.7847
1.432	22.5812
1.426	22.4586
1.42	22.2566
1.414	22.0333
1.408	21.8033
1.402	21.5956
1.396	21.4425
1.39	21.2381
1.384	21.1159
1.378	20.9975
1.372	20.7993
1.366	20.6067
1.36	20.3851
1.354	20.2798
1.348	20.0408
1.342	19.8613
1.336	19.7031
1.33	19.4858
1.324	19.389
1.318	19.1608
1.312	18.9721
1.306	18.8497
1.3	18.7131
1.294	18.5127
1.288	18.3111
1.282	18.2136
1.276	18.0339
1.27	17.9305
1.264	17.8215
1.258	17.6192
1.252	17.5271
1.246	17.3361
1.24	17.2185
1.234	17.1732
1.228	17.0057
1.222	16.8705
1.216	16.8071
1.21	16.719
1.204	16.5656
1.198	16.4793
1.192	16.4182
1.186	16.3028
1.18	16.2334
1.174	16.1189
1.168	16.0353
1.162	15.9707
1.156	15.814
1.15	15.8733
1.144	15.8102
1.138	15.6977
1.132	15.5968
1.126	15.6434
1.12	15.6254
1.114	15.538
1.108	15.4693
1.102	15.5267
1.096	15.5307
1.09	15.4746
1.084	15.2735
1.078	15.41
1.072	15.3019
1.066	15.3003
1.06	15.297
1.054	15.1613
1.048	15.1954
1.042	15.191
1.036	15.132
1.03	15.0423
1.024	15.0094
1.018	14.9926
1.012	14.7911
1.006	14.8391
1	14.7213
0.994	14.6628
0.988	14.5837
0.982	14.5086
0.976	14.3287
0.97	14.2933
0.964	14.2153
0.958	14.1848
0.952	14.1042
0.946	14.0055
0.94	13.9571
0.934	13.956
0.928	13.8994
0.922	13.9267
0.916	13.9175
0.91	13.9592
0.904	13.9338
0.898	13.9776
0.892	14.0055
0.886	14.0691
0.88	14.0931
0.874	14.1107
0.868	14.2102
0.862	14.3186
0.856	14.886
0.85	14.8926
0.844	14.8317
0.838	14.8055
0.832	14.7511
0.826	14.6702
0.82	14.5985
0.814	14.4996
0.808	14.3634
0.802	14.225
0.796	14.0518
0.79	13.8844
0.784	13.7209
0.778	13.5536
0.772	13.3568
0.766	13.2095
0.76	13.0518
0.754	12.93
0.748	12.7995
0.742	12.7013
0.736	12.61
0.73	12.5429
0.724	12.49
0.718	12.4469
0.712	12.4153
0.706	12.41
0.7	12.4043
0.694	12.4085
0.688	12.4191
0.682	12.4426
0.676	12.4677
0.67	12.5062
0.664	12.5437
0.658	12.5777
0.652	12.6174
0.646	12.6485
0.64	12.6756
0.634	12.6959
0.628	12.7138
0.622	12.7315
0.616	12.7355
0.61	12.7288
0.604	12.709
0.598	12.6737
0.592	12.6369
0.586	12.5712
0.58	12.5013
0.574	12.423
0.568	12.3367
0.562	12.2439
0.556	12.1032
0.55	11.9977
0.544	11.8884
0.538	11.7688
0.532	11.6423
0.526	11.4933
0.52	11.33
0.514	11.1504
0.508	10.9616
0.502	10.7677
0.496	10.5362
0.49	10.3132
0.484	10.0711
0.478	9.93884
0.472	9.82499
0.466	9.70163
0.46	9.56189
0.454	9.39781
0.448	9.25092
0.442	9.11248
0.436	9.00378
0.43	8.85476
0.424	8.73375
0.418	8.64636
0.412	8.58998
0.406	8.54878
0.4	8.52539
