Name: Magnesite MgCO_3
Type: Mineral
Class: Carbonates
Particle Size: 45-125um
Sample No.: C-6A
Owner: JPL
Wavelength Range: VNIR-SWIR
Origin: USA, California, Riverside County
Measurement: Hemispherical reflectance
X Units: Wavelength (micrometers)
Y Units: Reflectance (percent)
wavelength	value
0.4	68.52
0.403	69.21
0.406	69.26
0.409	70.01
0.412	70.07
0.415	70.52
0.418	70.81
0.421	71.15
0.424	71.84
0.427	71.78
0.43	72.35
0.433	72.53
0.436	73.27
0.439	73.44
0.442	74.07
0.445	74.24
0.448	74.75
0.451	74.93
0.454	75.4
0.457	75.62
0.46	75.97
0.463	76.72
0.466	76.72
0.469	77.19
0.472	77.42
0.475	77.88
0.478	78.24
0.481	78.12
0.484	78.82
0.487	78.93
0.49	79.45
0.493	79.63
0.496	79.92
0.499	80.38
0.502	80.5
0.505	81.3
0.508	81.36
0.511	81.94
0.514	82.1
0.517	82.44
0.52	83.08
0.523	82.85
0.526	83.25
0.529	83.42
0.532	83.54
0.535	83.93
0.538	83.87
0.541	84.34
0.544	84.22
0.547	84.57
0.55	85.03
0.553	84.85
0.556	85.2
0.559	85.14
0.562	85.77
0.565	85.53
0.568	85.88
0.571	85.59
0.574	85.77
0.577	85.88
0.58	85.71
0.583	86.05
0.586	85.71
0.589	86.11
0.592	86.23
0.595	86.05
0.598	86.4
0.601	86.23
0.604	86.74
0.607	86.4
0.61	86.69
0.613	86.63
0.616	86.51
0.619	86.74
0.622	86.57
0.625	86.86
0.628	86.74
0.631	86.8
0.634	86.92
0.637	86.63
0.64	86.97
0.643	86.69
0.646	86.92
0.649	86.92
0.652	86.74
0.655	87.08
0.658	86.57
0.661	86.97
0.664	86.97
0.667	86.86
0.67	87.2
0.673	86.8
0.676	87.2
0.679	87.02
0.682	87.02
0.685	87.2
0.688	86.97
0.691	87.31
0.694	87.02
0.697	87.37
0.7	87.14
0.703	87.14
0.706	87.2
0.709	87.54
0.712	87.2
0.715	87.6
0.718	87.48
0.721	87.43
0.724	87.6
0.727	87.31
0.73	87.66
0.733	87.37
0.736	87.66
0.739	87.43
0.742	87.6
0.745	87.6
0.748	87.6
0.751	87.77
0.754	87.54
0.757	88
0.76	87.54
0.763	87.89
0.766	87.77
0.769	87.83
0.772	88.06
0.775	87.89
0.778	88.17
0.781	87.94
0.784	88.17
0.787	88.23
0.79	88.12
0.793	88.46
0.796	88.23
0.799	88.58
0.808	88.52
0.82	88.74
0.832	88.91
0.844	88.8
0.856	88.86
0.868	88.8
0.88	88.74
0.892	88.68
0.904	88.74
0.916	88.74
0.928	88.46
0.94	88.46
0.952	88.12
0.964	88
0.976	87.94
0.988	87.89
1	87.71
1.012	87.6
1.024	87.71
1.036	87.66
1.048	87.71
1.06	87.77
1.072	87.77
1.084	87.89
1.096	87.83
1.108	87.77
1.12	87.89
1.132	87.6
1.144	87.43
1.156	87.36
1.168	87.17
1.18	87.15
1.192	87.18
1.204	86.94
1.216	87
1.228	86.83
1.24	86.71
1.252	86.71
1.264	86.74
1.276	86.67
1.288	86.76
1.3	86.62
1.312	86.21
1.324	85.95
1.336	85.77
1.348	85.45
1.36	85.28
1.372	84.03
1.384	81.05
1.396	80.83
1.408	78.79
1.42	77.83
1.432	77.45
1.444	77.59
1.456	77.37
1.468	77.31
1.48	77.2
1.492	77.26
1.504	77.14
1.516	77.2
1.528	77.26
1.54	77.37
1.552	77.53
1.564	77.65
1.576	77.71
1.588	77.76
1.6	77.76
1.612	77.75
1.624	77.61
1.636	77.66
1.648	77.52
1.66	77.67
1.672	77.65
1.684	77.58
1.696	77.51
1.708	77.56
1.72	77.33
1.732	77.38
1.744	77.21
1.756	77.27
1.768	77.15
1.78	76.86
1.792	76.86
1.804	76.79
1.816	76.54
1.828	76.36
1.84	75.83
1.852	75.37
1.864	74.04
1.876	71.12
1.888	66.96
1.9	62.58
1.912	60.63
1.924	60.22
1.936	60.33
1.948	60.19
1.96	59.81
1.972	59.77
1.984	59.84
1.996	60.02
2.008	60.42
2.02	60.72
2.032	60.99
2.044	61.5
2.056	61.83
2.068	62.43
2.08	62.96
2.092	63.5
2.104	64.09
2.116	64.68
2.128	65.27
2.14	66.13
2.152	66.79
2.164	67.03
2.176	67.23
2.188	67.25
2.2	66.8
2.212	66.02
2.224	64.89
2.236	63.5
2.248	62.19
2.26	60.82
2.272	59.69
2.284	58.6
2.296	57.99
2.308	58.57
2.32	59.95
2.332	61.03
2.344	60.84
2.356	60.1
2.368	58.48
2.38	56.74
2.392	55.25
2.404	53.74
2.416	51.96
2.428	50.22
2.44	48.39
2.452	46.61
2.464	45.1
2.476	43.92
2.488	43.58
2.5	43.62
