Name: Quartz SiO_2
Type: Mineral
Class: Silicates
Subclass: Tectosilicates
Particle Size: 45-125um
Sample No.: TS-1C
Owner: JPL
Origin: USA, South Dakota, Custer County, Custer
Description: Rose quartz.
Measurement: Hemispherical reflectance
X Units: Wavelength (micrometers)
Y Units: Reflectance (percent)
wavelength	value
15.385	6.7492
15.116	6.4421
14.856	5.4395
14.605	4.6109
14.362	3.7838
14.128	3.6615
13.9	4.4466
13.68	5.298
13.467	5.4451
13.26	5.6502
13.06	6.6927
12.866	11.1475
12.677	8.4836
12.494	10.9272
12.316	1.1699
12.143	1.9605
11.974	3.0452
11.811	4.0039
11.651	4.7298
11.496	5.1416
11.345	5.7155
11.198	5.8998
11.055	6.535
10.915	6.5383
10.779	6.6608
10.647	6.577
10.517	6.9228
10.39	7.1305
10.267	7.7231
10.146	8.1667
10.029	8.7294
9.914	9.8147
9.801	11.1081
9.691	12.9708
9.584	16.0124
9.479	21.6753
9.376	36.1922
9.275	50.4538
9.177	53.1267
9.08	54.1449
8.986	54.1749
8.893	53.1619
8.803	50.3153
8.714	45.97
8.627	29.2597
8.542	46.8527
8.458	48.2022
8.376	46.8575
8.296	45.7413
8.217	44.2334
8.139	35.3554
8.063	22.4588
7.989	14.0157
7.916	7.6488
7.844	4.2316
7.773	2.4477
7.704	1.4178
7.636	0.6684
7.569	0.267
7.503	0.1147
7.439	0.1446
7.375	0.0505
7.313	0.1026
7.252	0.1234
7.191	0.2812
7.132	0.2567
7.073	0.4663
7.016	0.6855
6.96	0.9148
6.904	1.2047
6.849	1.3044
6.795	1.227
6.742	1.0112
6.69	1.0445
6.639	1.2853
6.588	1.2379
6.538	1.2175
6.489	2.2995
6.441	3.4289
6.393	3.142
6.346	2.358
6.3	1.6393
6.254	1.2403
6.209	1.0933
6.165	1.3755
6.121	2.2828
6.078	3.2288
6.036	3.2782
5.994	2.8133
5.953	2.2516
5.912	2.3702
5.872	3.4206
5.832	4.8396
5.793	6.2295
5.755	7.6479
5.716	8.5185
5.679	7.3165
5.642	4.0225
5.605	2.7102
5.569	2.5773
5.533	3.0135
5.498	4.0628
5.463	5.3526
5.429	4.5644
5.395	2.3572
5.362	1.5881
5.329	1.6168
5.296	1.7123
5.264	2.1673
5.232	3.4066
5.2	5.2639
5.169	5.0629
5.139	4.6823
5.108	4.5522
5.078	3.8437
5.049	3.527
5.019	3.4101
4.99	3.6512
4.962	5.3686
4.933	7.1556
4.905	11.2505
4.878	20.4942
4.85	27.5955
4.823	32.3604
4.796	36.2813
4.77	39.3916
4.744	41.6451
4.718	42.0233
4.692	37.0561
4.667	38.2926
4.642	44.6352
4.617	49.6631
4.592	51.6068
4.568	51.4448
4.544	47.6765
4.52	40.3662
4.497	32.9359
4.474	30.3635
4.45	32.0561
4.428	34.3962
4.405	37.713
4.383	42.1937
4.361	47.1793
4.339	50.3479
4.317	50.6559
4.296	49.2618
4.274	49.9667
4.253	52.1774
4.233	51.5133
4.212	52.7001
4.191	53.2655
4.171	55.2924
4.151	56.7336
4.131	58.252
4.112	60.3839
4.092	62.5176
4.073	64.1351
4.054	64.6182
4.035	64.1876
4.016	63.9616
3.998	64.1405
3.979	65.0992
3.961	66.5774
3.943	67.9975
3.925	68.905
3.907	68.8029
3.89	67.8563
3.872	66.894
3.855	66.3432
3.838	66.5376
3.821	67.3296
3.804	67.839
3.787	67.5753
3.771	66.6803
3.754	65.7064
3.738	65.5215
3.722	66.4443
3.706	68.0291
3.69	70.0783
3.675	72.0443
3.659	73.5327
3.644	74.2116
3.628	74.4413
3.613	74.5776
3.598	74.8444
3.583	75.3335
3.568	75.9306
3.554	76.6902
3.539	77.3602
3.525	78.0814
3.51	78.227
3.496	78.3479
3.482	79.0451
3.468	79.3233
3.454	79.4451
3.441	79.2257
3.427	78.4716
3.413	77.8202
3.4	78.2605
3.387	78.4548
3.373	78.2001
3.36	78.7467
3.347	79.0181
3.334	78.8621
3.321	78.7812
3.309	78.3225
3.296	78.1754
3.284	77.5977
3.271	77.2228
3.259	76.8244
3.247	76.4727
3.234	76.0635
3.222	75.5038
3.21	75.0433
3.199	74.5309
3.187	73.8791
3.175	73.3273
3.163	72.6311
3.152	71.7564
3.14	70.5622
3.129	69.7047
3.118	69.3472
3.107	69.2414
3.095	69.0502
3.084	68.6371
3.073	68.1813
3.063	67.4521
3.052	66.429
3.041	65.3221
3.03	64.648
3.02	64.0125
3.009	64.1989
2.999	64.6607
2.988	64.69
2.978	63.6729
2.968	60.5471
2.958	58.7344
2.948	61.6557
2.938	63.1508
2.928	63.3108
2.918	63.2823
2.908	63.9322
2.898	65.1775
2.888	66.0212
2.879	66.1004
2.869	64.9535
2.86	67.6933
2.85	68.4745
2.841	69.0854
2.832	69.6156
2.822	70.1911
2.813	70.9543
2.804	71.8999
2.795	72.2976
2.786	73.0228
2.777	73.2539
2.768	73.7246
2.759	73.2527
2.751	73.9341
2.742	75.5187
2.733	76.6777
2.725	78.828
2.716	80.2915
2.707	81.5852
2.699	82.7068
2.691	83.8472
2.682	84.5596
2.674	85.0036
2.666	86.1731
2.658	85.3026
2.649	85.3273
2.641	85.5016
2.633	85.733
2.625	85.5936
2.617	86.1901
2.609	85.6758
2.602	85.8088
2.594	86.4572
2.586	85.8474
2.578	85.6465
2.571	85.8849
2.563	86.0573
2.555	85.5868
2.548	85.6044
2.54	85.557
2.533	85.67
2.525	85.8157
2.518	85.7883
2.511	85.6621
2.504	85.6813
2.496	85.7394
2.489	85.6598
2.482	85.6393
2.475	85.6397
2.468	85.7601
2.461	85.8195
2.454	85.7033
2.447	85.9264
2.44	85.7639
2.433	85.9096
2.426	85.8897
2.419	85.9974
2.413	85.9247
2.406	85.7421
2.399	85.7836
2.393	85.9663
2.386	85.8534
2.379	85.8945
2.373	85.753
2.366	85.9799
2.36	85.9162
2.354	85.8466
2.347	85.861
2.341	86.0762
2.334	85.8736
2.328	85.9565
2.322	86.0589
2.316	86.0271
2.309	85.9388
2.303	85.9109
2.297	85.9269
2.291	86.0106
2.285	86.0936
2.279	86.0266
2.273	85.9758
2.267	86.0991
2.261	86.1799
2.255	85.9339
2.249	85.8608
2.244	86.0083
2.238	85.9128
2.232	85.9307
2.226	85.9031
2.22	85.891
2.215	85.8043
2.209	85.7609
2.204	85.812
2.198	85.7358
2.192	85.7746
2.187	85.9642
2.181	85.9212
2.176	85.922
2.17	85.941
2.165	85.8381
2.159	85.8623
2.154	85.8613
2.149	86.0767
2.143	85.8558
2.138	85.9883
2.133	85.9025
2.128	86.1123
2.122	85.9691
2.117	86.2478
2.112	85.7699
2.107	86.1911
2.102	86.0375
2.097	85.8004
2.091	85.9203
2.086	85.7625
2.081	85.5885
2.076	86.2202
2.071	86.0724
2.066	85.973
2.062	85.8677
2.057	85.8136
2.052	85.9185
2.047	85.8311
2.042	85.7999
2.037	86.0007
2.032	85.5445
2.028	86.0134
2.023	85.7054
2.018	85.7929
2.014	85.5752
2.009	85.9229
2.004	85.843
