Name: Quartz SiO_2
Type: Mineral
Class: Silicates
Subclass: Tectosilicates
Particle Size: 0-45um
Sample No.: TS-1C
Owner: JPL
Origin: USA, South Dakota, Custer County, Custer.
Description: Rose quartz
Measurement: Hemispherical reflectance
X Units: Wavelength (micrometers)
Y Units: Reflectance (percent)
wavelength	value
2.5	75.2771
2.494	75.2837
2.488	75.1119
2.482	75.2605
2.476	75.3858
2.47	75.4244
2.464	75.538
2.458	75.7375
2.452	75.7843
2.446	75.7413
2.44	75.8541
2.434	75.9805
2.428	76.0064
2.422	76.1241
2.416	76.127
2.41	76.1585
2.404	76.2672
2.398	76.2874
2.392	76.4271
2.386	76.5263
2.38	76.5318
2.374	76.6889
2.368	76.7297
2.362	76.8478
2.356	76.9156
2.35	76.839
2.344	76.9459
2.338	77.0168
2.332	76.9865
2.326	76.8775
2.32	76.7715
2.314	76.7234
2.308	76.755
2.302	76.7111
2.296	76.7035
2.29	76.7018
2.284	76.7688
2.278	76.6405
2.272	76.7531
2.266	76.6193
2.26	76.6442
2.254	76.6591
2.248	76.7475
2.242	76.6112
2.236	76.7971
2.23	76.7702
2.224	76.6245
2.218	76.7679
2.212	76.9168
2.206	76.9925
2.2	77.178
2.194	77.1862
2.188	77.3236
2.182	77.3854
2.176	77.5219
2.17	77.6502
2.164	77.8554
2.158	78.0852
2.152	78.1193
2.146	78.2044
2.14	78.1966
2.134	78.2283
2.128	78.0198
2.122	77.6855
2.116	77.5838
2.11	77.3015
2.104	77.1569
2.098	76.9381
2.092	77.0198
2.086	77.1046
2.08	77.1921
2.074	77.2771
2.068	77.2769
2.062	77.3248
2.056	77.4445
2.05	77.4543
2.044	77.6012
2.038	77.6098
2.032	77.6011
2.026	77.6452
2.02	77.6606
2.014	77.6334
2.008	77.645
2.002	77.5809
1.996	77.5771
1.99	77.5371
1.984	77.5652
1.978	77.522
1.972	77.5182
1.966	77.4828
1.96	77.4818
1.954	77.4984
1.948	77.4469
1.942	77.4832
1.936	77.52
1.93	77.5344
1.924	77.4768
1.918	77.6161
1.912	77.6301
1.906	77.5603
1.9	77.7738
1.894	77.8344
1.888	77.9868
1.882	78.0225
1.876	78.1887
1.87	78.1674
1.864	78.2097
1.858	78.1958
1.852	78.2504
1.846	78.2704
1.84	78.2718
1.834	78.259
1.828	78.2947
1.822	78.3676
1.816	78.3088
1.81	78.4087
1.804	78.4033
1.798	78.4127
1.792	78.3952
1.786	78.4186
1.78	78.4128
1.774	78.3625
1.768	78.303
1.762	78.3693
1.756	78.2792
1.75	78.3585
1.744	78.3187
1.738	78.3774
1.732	78.3952
1.726	78.4066
1.72	78.3835
1.714	78.3887
1.708	78.4309
1.702	78.4058
1.696	78.3309
1.69	78.3777
1.684	78.4326
1.678	78.3901
1.672	78.3923
1.666	78.3246
1.66	78.402
1.654	78.3895
1.648	78.5084
1.642	78.4986
1.636	78.5461
1.63	78.4525
1.624	78.5196
1.618	78.4675
1.612	78.5486
1.606	78.6198
1.6	78.5809
1.594	78.6525
1.588	78.5626
1.582	78.6039
1.576	78.5445
1.57	78.631
1.564	78.5677
1.558	78.4727
1.552	78.4921
1.546	78.4641
1.54	78.4987
1.534	78.5848
1.528	78.5349
1.522	78.5
1.516	78.4504
1.51	78.5443
1.504	78.5513
1.498	78.507
1.492	78.4977
1.486	78.4919
1.48	78.4475
1.474	78.5813
1.468	78.4217
1.462	78.3733
1.456	78.4897
1.45	78.485
1.444	78.4334
1.438	78.508
1.432	78.5108
1.426	78.4004
1.42	78.317
1.414	78.4136
1.408	78.2948
1.402	78.2723
1.396	78.408
1.39	78.4891
1.384	78.41
1.378	78.4923
1.372	78.4111
1.366	78.4178
1.36	78.3464
1.354	78.4448
1.348	78.3712
1.342	78.3934
1.336	78.4283
1.33	78.3645
1.324	78.4726
1.318	78.4553
1.312	78.4663
1.306	78.4676
1.3	78.609
1.294	78.4834
1.288	78.5413
1.282	78.4515
1.276	78.5302
1.27	78.5506
1.264	78.4625
1.258	78.4857
1.252	78.5461
1.246	78.3975
1.24	78.4482
1.234	78.4686
1.228	78.4375
1.222	78.4779
1.216	78.5058
1.21	78.4374
1.204	78.5305
1.198	78.5563
1.192	78.5751
1.186	78.5409
1.18	78.5035
1.174	78.5261
1.168	78.5469
1.162	78.5349
1.156	78.6003
1.15	78.5709
1.144	78.4965
1.138	78.562
1.132	78.5767
1.126	78.5484
1.12	78.5562
1.114	78.5973
1.108	78.6058
1.102	78.6662
1.096	78.7634
1.09	78.6515
1.084	78.7339
1.078	78.7862
1.072	78.7131
1.066	78.7791
1.06	78.7874
1.054	78.7479
1.048	78.737
1.042	78.7808
1.036	78.6544
1.03	78.7793
1.024	78.6618
1.018	78.6988
1.012	78.8598
1.006	78.7253
1	78.7175
0.994	78.7384
0.988	78.7779
0.982	78.7837
0.976	78.825
0.97	78.8788
0.964	78.8109
0.958	78.7723
0.952	78.8804
0.946	78.7597
0.94	78.7837
0.934	78.8148
0.928	78.7066
0.922	78.7593
0.916	78.811
0.91	78.7781
0.904	78.6434
0.898	78.6776
0.892	78.7631
0.886	78.7657
0.88	78.7362
0.874	78.7559
0.868	78.7078
0.862	78.7613
0.856	79.0169
0.85	79.0328
0.844	78.9823
0.838	79.0124
0.832	79.0243
0.826	79.0568
0.82	79.0462
0.814	79.0347
0.808	79.0938
0.802	79.0832
0.796	79.0373
0.79	78.9924
0.784	79.0345
0.778	79.0307
0.772	78.9392
0.766	78.955
0.76	78.799
0.754	78.6538
0.748	78.6949
0.742	78.637
0.736	78.6694
0.73	78.6296
0.724	78.6175
0.718	78.5905
0.712	78.568
0.706	78.5557
0.7	78.581
0.694	78.5717
0.688	78.5264
0.682	78.5352
0.676	78.5375
0.67	78.5379
0.664	78.5479
0.658	78.4985
0.652	78.5148
0.646	78.4643
0.64	78.4608
0.634	78.4809
0.628	78.4449
0.622	78.3938
0.616	78.4467
0.61	78.3901
0.604	78.3611
0.598	78.3555
0.592	78.3407
0.586	78.3042
0.58	78.3005
0.574	78.2874
0.568	78.2223
0.562	78.1727
0.556	78.1935
0.55	78.2577
0.544	77.9597
0.538	77.874
0.532	77.8023
0.526	77.7513
0.52	77.6668
0.514	77.594
0.508	77.4899
0.502	77.4085
0.496	77.3145
0.49	77.2339
0.484	77.3212
0.478	77.3006
0.472	77.259
0.466	77.2297
0.46	77.1506
0.454	77.0283
0.448	76.8654
0.442	76.6716
0.436	76.4375
0.43	76.2185
0.424	75.9808
0.418	75.8546
0.412	75.7546
0.406	75.6762
0.4	75.5387
