Name: Cummingtonite (Mg,Fe^2+)_7Si_8O_22(OH)_2
Type: Mineral
Class: Silicates
Subclass: Inosilicates
Particle Size: 125-500um
Sample No.: IN-6A
Owner: JPL
Origin: USA, South Dakota.
Measurement: Hemispherical reflectance
X Units: Wavelength (micrometers)
Y Units: Reflectance (percent)
wavelength	value
2.5	4.26223
2.494	4.4273
2.488	4.45276
2.482	4.44739
2.476	4.49703
2.47	4.51457
2.464	4.43016
2.458	4.52309
2.452	4.57488
2.446	4.60562
2.44	4.59694
2.434	4.59218
2.428	4.57262
2.422	4.65468
2.416	4.63547
2.41	4.6279
2.404	4.6825
2.398	4.68014
2.392	4.69494
2.386	4.66675
2.38	4.70872
2.374	4.68175
2.368	4.76025
2.362	4.70522
2.356	4.77552
2.35	4.75215
2.344	4.7131
2.338	4.74924
2.332	4.78557
2.326	4.74991
2.32	4.83197
2.314	4.86934
2.308	4.93872
2.302	4.92415
2.296	4.92707
2.29	5.03711
2.284	5.03473
2.278	5.108
2.272	5.07806
2.266	5.08836
2.26	5.13184
2.254	5.11508
2.248	5.25541
2.242	5.23093
2.236	5.23038
2.23	5.29857
2.224	5.38006
2.218	5.34308
2.212	5.51145
2.206	5.44967
2.2	5.43236
2.194	5.48972
2.188	5.43051
2.182	5.50002
2.176	5.50626
2.17	5.52235
2.164	5.64621
2.158	5.59305
2.152	5.63408
2.146	5.69179
2.14	5.65764
2.134	5.64148
2.128	5.64734
2.122	5.69899
2.116	5.67901
2.11	5.67131
2.104	5.69809
2.098	5.6493
2.092	5.64957
2.086	5.68299
2.08	5.73783
2.074	5.71201
2.068	5.74399
2.062	5.67884
2.056	5.73597
2.05	5.74176
2.044	5.7457
2.038	5.73072
2.032	5.7214
2.026	5.72766
2.02	5.76897
2.014	5.79947
2.008	5.73792
2.002	5.7702
1.996	5.80032
1.99	5.76729
1.984	5.75871
1.978	5.81977
1.972	5.75622
1.966	5.86563
1.96	5.85836
1.954	5.84625
1.948	5.77226
1.942	5.79744
1.936	5.76732
1.93	5.85192
1.924	5.81532
1.918	5.76325
1.912	5.85274
1.906	5.84222
1.9	5.85204
1.894	5.8916
1.888	5.86377
1.882	5.96562
1.876	5.8806
1.87	5.84225
1.864	5.9648
1.858	5.95581
1.852	5.96397
1.846	5.92897
1.84	5.91685
1.834	5.97054
1.828	5.99066
1.822	6.00902
1.816	5.93357
1.81	5.95208
1.804	5.99083
1.798	5.97936
1.792	5.9795
1.786	5.92103
1.78	5.99093
1.774	5.99214
1.768	6.00595
1.762	5.99531
1.756	5.96134
1.75	5.95185
1.744	5.98796
1.738	6.00104
1.732	5.91512
1.726	5.991
1.72	5.98329
1.714	6.03006
1.708	5.97843
1.702	5.97895
1.696	6.00752
1.69	6.00703
1.684	6.05295
1.678	6.04341
1.672	6.04114
1.666	5.9894
1.66	6.01704
1.654	5.9397
1.648	6.01933
1.642	6.04784
1.636	5.97929
1.63	6.01229
1.624	5.92685
1.618	5.91531
1.612	5.95995
1.606	5.98845
1.6	5.93455
1.594	5.97447
1.588	6.02107
1.582	5.9843
1.576	5.88632
1.57	5.9932
1.564	5.91753
1.558	5.88972
1.552	5.9426
1.546	5.89874
1.54	5.91196
1.534	5.8491
1.528	5.84349
1.522	5.83319
1.516	5.8624
1.51	5.85655
1.504	5.82486
1.498	5.81616
1.492	5.76919
1.486	5.7563
1.48	5.77239
1.474	5.72889
1.468	5.75087
1.462	5.70014
1.456	5.72572
1.45	5.68048
1.444	5.65486
1.438	5.63837
1.432	5.61588
1.426	5.62861
1.42	5.57529
1.414	5.38338
1.408	5.31444
1.402	5.39386
1.396	5.48599
1.39	5.49346
1.384	5.37931
1.378	5.41084
1.372	5.40245
1.366	5.45779
1.36	5.38279
1.354	5.45238
1.348	5.29679
1.342	5.42257
1.336	5.28722
1.33	5.3179
1.324	5.25536
1.318	5.30469
1.312	5.24264
1.306	5.18634
1.3	5.22358
1.294	5.18972
1.288	5.19305
1.282	5.13714
1.276	5.14276
1.27	5.1217
1.264	5.10405
1.258	5.05989
1.252	4.99813
1.246	5.04867
1.24	5.08024
1.234	5.01524
1.228	4.99337
1.222	4.99066
1.216	5.03221
1.21	4.98226
1.204	4.95857
1.198	5.02429
1.192	5.00312
1.186	5.03111
1.18	4.90782
1.174	4.95795
1.168	4.96705
1.162	4.95348
1.156	4.91179
1.15	4.99623
1.144	4.94201
1.138	4.98323
1.132	4.93319
1.126	4.93734
1.12	4.91776
1.114	4.95045
1.108	4.9647
1.102	4.83853
1.096	4.80126
1.09	4.77561
1.084	4.69812
1.078	4.68104
1.072	4.61995
1.066	4.66388
1.06	4.58447
1.054	4.5416
1.048	4.47463
1.042	4.44906
1.036	4.34801
1.03	4.25304
1.024	4.26783
1.018	4.22965
1.012	4.18102
1.006	4.18281
1	4.13533
0.994	4.13241
0.988	4.10764
0.982	4.08841
0.976	4.12316
0.97	4.14334
0.964	4.0491
0.958	4.14075
0.952	4.15689
0.946	4.14354
0.94	4.11711
0.934	4.18375
0.928	4.15904
0.922	4.14688
0.916	4.23383
0.91	4.26017
0.904	4.31096
0.898	4.35736
0.892	4.42778
0.886	4.4508
0.88	4.51626
0.874	4.58918
0.868	4.6249
0.862	4.73754
0.856	5.08219
0.85	5.16149
0.844	5.23402
0.838	5.29383
0.832	5.35372
0.826	5.42136
0.82	5.47748
0.814	5.5179
0.808	5.56111
0.802	5.58568
0.796	5.60757
0.79	5.63117
0.784	5.64518
0.778	5.64017
0.772	5.65638
0.766	5.65857
0.76	5.65604
0.754	5.65552
0.748	5.66645
0.742	5.66381
0.736	5.66512
0.73	5.66479
0.724	5.67305
0.718	5.67557
0.712	5.6857
0.706	5.69782
0.7	5.71103
0.694	5.72798
0.688	5.74604
0.682	5.76407
0.676	5.7855
0.67	5.80893
0.664	5.83525
0.658	5.85774
0.652	5.88372
0.646	5.90631
0.64	5.92945
0.634	5.95048
0.628	5.96775
0.622	5.98549
0.616	6.00597
0.61	6.03191
0.604	6.05146
0.598	6.07447
0.592	6.09277
0.586	6.10356
0.58	6.10756
0.574	6.11229
0.568	6.11293
0.562	6.09695
0.556	6.05676
0.55	6.04502
0.544	6.07149
0.538	6.0744
0.532	6.04823
0.526	6.01292
0.52	5.96724
0.514	5.88564
0.508	5.84466
0.502	5.86747
0.496	5.84234
0.49	5.79471
0.484	5.76492
0.478	5.72037
0.472	5.70599
0.466	5.69545
0.46	5.67455
0.454	5.65155
0.448	5.62072
0.442	5.57585
0.436	5.53091
0.43	5.50006
0.424	5.45949
0.418	5.42715
0.412	5.39986
0.406	5.36926
0.4	5.32741
