Name: Mimetite Pb_5(AsO_4)_3Cl
Type: Mineral
Class: Arsenates
Particle Size: 0-45um
Sample No.: A-1A
Owner: JPL
Wavelength Range: VNIR-SWIR
Origin: Mexico, Chihuahua, Ingla Tierra Mine
Measurement: Hemispherical reflectance
X Units: Wavelength (micrometers)
Y Units: Reflectance (percent)
wavelength	value
0.4	59.05
0.403	59.36
0.406	59.74
0.409	60.13
0.412	60.58
0.415	61.04
0.418	61.55
0.421	62
0.424	62.48
0.427	63.04
0.43	63.68
0.433	64.3
0.436	64.82
0.439	65.49
0.442	66.02
0.445	66.75
0.448	67.35
0.451	68.16
0.454	68.69
0.457	69.34
0.46	69.83
0.463	71.02
0.466	71.45
0.469	72.19
0.472	72.94
0.475	73.71
0.478	74.54
0.481	75.11
0.484	75.82
0.487	76.45
0.49	77.06
0.493	77.71
0.496	78.43
0.499	78.89
0.502	79.56
0.505	80.05
0.508	80.66
0.511	81.32
0.514	81.78
0.517	82.27
0.52	82.51
0.523	83.02
0.526	83.3
0.529	83.68
0.532	83.99
0.535	84.37
0.538	84.72
0.541	84.88
0.544	85.38
0.547	85.44
0.55	85.77
0.553	85.98
0.556	86.34
0.559	86.57
0.562	87.17
0.565	87.42
0.568	87.73
0.571	87.83
0.574	87.85
0.577	88.01
0.58	88.14
0.583	88.42
0.586	88.63
0.589	88.82
0.592	88.95
0.595	89.18
0.598	89.41
0.601	89.72
0.604	89.75
0.607	89.88
0.61	89.94
0.613	89.83
0.616	90.1
0.619	90.06
0.622	90.12
0.625	90.12
0.628	90.23
0.631	90.24
0.634	90.4
0.637	90.33
0.64	90.45
0.643	90.34
0.646	90.46
0.649	90.63
0.652	90.62
0.655	90.63
0.658	90.62
0.661	90.81
0.664	90.85
0.667	90.92
0.67	90.92
0.673	90.86
0.676	90.85
0.679	91.09
0.682	91.15
0.685	91.1
0.688	91.26
0.691	91.27
0.694	91.33
0.697	91.43
0.7	91.34
0.703	91.5
0.706	91.56
0.709	91.55
0.712	91.62
0.715	91.68
0.718	91.67
0.721	91.68
0.724	91.85
0.727	91.85
0.73	91.85
0.733	91.79
0.736	91.85
0.739	91.85
0.742	91.86
0.745	91.96
0.748	91.91
0.751	91.91
0.754	91.74
0.757	91.91
0.76	91.96
0.763	91.8
0.766	92.02
0.769	91.86
0.772	91.96
0.775	91.74
0.778	91.86
0.781	91.91
0.784	91.8
0.787	91.92
0.79	91.92
0.793	91.85
0.796	91.85
0.799	91.82
0.808	91.79
0.82	91.79
0.832	91.9
0.844	91.89
0.856	92.01
0.868	92.18
0.88	92.18
0.892	92.24
0.904	92.3
0.916	92.42
0.928	92.66
0.94	92.78
0.952	92.83
0.964	93.02
0.976	92.96
0.988	93.14
1	93.26
1.012	93.38
1.024	93.44
1.036	93.61
1.048	93.67
1.06	93.79
1.072	93.85
1.084	93.91
1.096	94.03
1.108	94.15
1.12	94.21
1.132	94.32
1.144	94.33
1.156	94.38
1.168	94.29
1.18	94.33
1.192	94.31
1.204	94.35
1.216	94.18
1.228	94.18
1.24	94.17
1.252	94.29
1.264	94.32
1.276	94.18
1.288	94.27
1.3	94.13
1.312	94.11
1.324	93.96
1.336	93.95
1.348	93.92
1.36	93.93
1.372	93.75
1.384	93.81
1.396	93.63
1.408	93.71
1.42	93.62
1.432	93.52
1.444	93.49
1.456	93.38
1.468	93.44
1.48	93.56
1.492	93.5
1.504	93.56
1.516	93.62
1.528	93.5
1.54	93.5
1.552	93.56
1.564	93.44
1.576	93.5
1.588	93.39
1.6	93.44
1.612	93.25
1.624	93.34
1.636	93.26
1.648	93.23
1.66	93.26
1.672	93.2
1.684	93.17
1.696	93.15
1.708	93.08
1.72	92.96
1.732	92.91
1.744	92.85
1.756	92.85
1.768	92.73
1.78	92.68
1.792	92.68
1.804	92.6
1.816	92.5
1.828	92.48
1.84	92.37
1.852	92.37
1.864	92.28
1.876	92.09
1.888	91.89
1.9	91.76
1.912	91.61
1.924	91.44
1.936	91.35
1.948	91.33
1.96	91.29
1.972	91.35
1.984	91.46
1.996	91.58
2.008	91.8
2.02	91.84
2.032	91.97
2.044	91.99
2.056	92.05
2.068	92.1
2.08	92.16
2.092	92.21
2.104	92.38
2.116	92.61
2.128	92.6
2.14	92.4
2.152	92.19
2.164	91.99
2.176	91.87
2.188	91.81
2.2	91.63
2.212	91.6
2.224	91.62
2.236	91.55
2.248	91.58
2.26	91.6
2.272	91.52
2.284	91.63
2.296	91.57
2.308	91.53
2.32	91.7
2.332	91.83
2.344	91.79
2.356	91.9
2.368	91.84
2.38	91.76
2.392	91.67
2.404	91.66
2.416	91.64
2.428	91.55
2.44	91.54
2.452	91.41
2.464	91.32
2.476	91.36
2.488	91.66
2.5	92.14
