Name: Pink Marble
Type: Rock
Class: Metamorphic
Subclass: Marble
Particle Size: Solid surface
Sample No.: Ward96.txt
Owner: JPL
Origin: Ward's Collection of American Rocks.  Sample locality - Tate, Pickens County, Georgia.  Collected by - JPL.
Description: A pinkish rock composed chiefly of granular pick calcite
Measurement: Hemispherical reflectance
X Units: Wavelength (micrometers)
Y Units: Reflectance (percent)
wavelength	value
15.3871	5.13847
15.118	5.06489
14.8581	5.62534
14.6069	5.58923
14.3642	5.69279
14.1293	5.37863
13.9021	2.62185
13.682	5.10243
13.4687	5.76994
13.2621	6.06304
13.0616	6.20023
12.8672	6.18787
12.6784	6.59376
12.4951	6.66973
12.317	6.80895
12.1439	7.32283
11.9757	7.30926
11.812	6.67757
11.6527	7.92142
11.4977	9.97445
11.3468	24.0683
11.1997	8.56173
11.0564	6.83938
10.9168	6.82013
10.7806	6.99172
10.6478	6.6165
10.5182	7.14929
10.3917	7.40261
10.2683	7.78184
10.1477	7.96178
10.0299	7.92888
9.9148	8.33732
9.8024	8.13104
9.6925	8.95889
9.585	9.27867
9.4798	9.68123
9.377	9.32599
9.2763	9.50127
9.1778	9.48458
9.0814	10.3713
8.987	10.0919
8.8945	10.4444
8.8039	10.0661
8.7151	9.57389
8.6281	8.79356
8.5428	8.70852
8.4592	8.81232
8.3772	8.98074
8.2967	8.97375
8.2179	9.42472
8.1404	9.06833
8.0645	8.71601
7.9899	8.89179
7.9167	8.78087
7.8449	8.88598
7.7743	9.32689
7.705	9.40502
7.6369	9.48805
7.57	10.2226
7.5043	10.5617
7.4397	11.2769
7.3762	12.1715
7.3138	13.3682
7.2524	15.4696
7.1921	18.8134
7.1327	24.1103
7.0743	29.7732
7.0169	31.2978
6.9604	32.2762
6.9047	33.2687
6.85	35.8159
6.7962	38.1888
6.7431	40.9537
6.6909	45.2155
6.6395	48.5068
6.5889	49.6548
6.539	50.3738
6.49	49.9381
6.4416	37.6564
6.3939	17.2863
6.347	8.01494
6.3007	3.65331
6.2551	1.98764
6.2101	1.2464
6.1658	0.79705
6.1222	0.6608
6.0791	0.9248
6.0366	0.90606
5.9948	1.06677
5.9535	1.17617
5.9127	1.30955
5.8726	1.53376
5.8329	1.57011
5.7938	1.73243
5.7552	1.78892
5.7172	1.92881
5.6796	2.08304
5.6425	2.30723
5.6059	2.25267
5.5698	1.80482
5.5341	1.944
5.4989	2.72195
5.4641	3.28292
5.4298	3.56458
5.3959	4.02937
5.3624	4.60975
5.3294	5.03494
5.2967	5.44828
5.2644	5.7859
5.2326	6.13673
5.2011	6.53925
5.17	6.66233
5.1392	6.83902
5.1088	6.21175
5.0788	7.02583
5.0491	7.58318
5.0198	7.5406
4.9908	7.72842
4.9622	7.77618
4.9338	7.95804
4.9058	7.94931
4.8781	8.19982
4.8508	8.42578
4.8237	8.62907
4.7969	8.53589
4.7704	8.42579
4.7443	7.89191
4.7184	6.93394
4.6927	5.77995
4.6674	5.63339
4.6423	5.98475
4.6175	7.16427
4.593	7.47834
4.5687	7.69424
4.5447	7.84479
4.5209	7.90877
4.4974	7.98877
4.4741	8.61268
4.451	9.16489
4.4282	9.77818
4.4057	9.98761
4.3833	10.1488
4.3612	10.0423
4.3393	9.69706
4.3176	9.64644
4.2962	9.97989
4.2749	9.78861
4.2539	10.0718
4.233	9.78622
4.2124	9.71003
4.192	9.61092
4.1717	9.18653
4.1517	8.91985
4.1319	8.23537
4.1122	7.88775
4.0927	7.32595
4.0734	6.61048
4.0543	5.97453
4.0354	5.14428
4.0166	4.48162
3.9981	3.92106
3.9796	3.47304
3.9614	3.67964
3.9433	3.89065
3.9254	4.39048
3.9077	4.43533
3.8901	4.50397
3.8726	4.49356
3.8554	4.43813
3.8382	4.76843
3.8213	5.36284
3.8045	6.19584
3.7878	7.5128
3.7713	8.79498
3.7549	9.40086
3.7386	10.0164
3.7225	10.4019
3.7066	10.9449
3.6907	10.9649
3.675	10.9913
3.6595	10.7894
3.644	10.7515
3.6287	10.591
3.6136	10.0735
3.5985	9.51351
3.5836	8.77731
3.5688	7.82542
3.5541	7.29376
3.5396	6.80216
3.5251	5.71893
3.5108	5.19069
3.4966	4.45925
3.4825	4.49919
3.4685	4.21627
3.4547	4.8693
3.4409	5.24602
3.4273	4.92247
3.4137	5.00908
3.4003	5.18881
3.387	4.84576
3.3738	4.85327
3.3606	5.02119
3.3476	4.3007
3.3347	6.02814
3.3219	7.11597
3.3092	7.77783
3.2965	8.73822
3.284	9.04096
3.2716	9.30542
3.2593	9.61274
3.247	9.88254
3.2348	10.2785
3.2228	10.8051
3.2108	10.955
3.1989	10.9187
3.1871	10.584
3.1754	10.313
3.1638	10.1577
3.1523	9.5873
3.1408	9.29394
3.1294	9.38487
3.1181	9.54665
3.1069	9.40027
3.0958	9.49912
3.0848	8.91693
3.0738	9.90925
3.0629	9.09751
3.0521	9.26885
3.0413	9.5099
3.0307	9.5089
3.0201	10.0345
3.0096	10.5728
2.9991	9.73061
2.9887	9.63211
2.9784	10.2391
2.9682	10.0136
2.9581	9.97684
2.948	10.3196
2.9379	10.0972
2.928	10.3359
2.9181	10.261
2.9083	9.47459
2.8985	10.7236
2.8888	10.317
2.8792	10.4795
2.8697	10.9408
2.8602	11.2948
2.8507	11.2956
2.8413	11.1977
2.832	10.6458
2.8228	10.6891
2.8136	11.0641
2.8045	10.1101
2.7954	10.0203
2.7864	10.4394
2.7774	9.986
2.7685	11.4837
2.7597	11.5052
2.7509	13.0278
2.7422	13.5655
2.7335	13.8964
2.7249	15.234
2.7163	17.0134
2.7078	18.6117
2.6994	20.2435
2.691	21.72
2.6826	22.876
2.6743	23.2969
2.666	24.2024
2.6578	24.7785
2.6497	25.02
2.6416	25.2384
2.6336	24.3288
2.6256	25.0187
2.6176	25.2686
2.6097	24.9938
2.6018	24.3253
2.594	23.1515
2.5863	21.151
2.5785	21.0161
2.5709	19.0941
2.5633	18.4893
2.5557	16.0577
2.5481	13.3031
2.5406	12.2801
2.5332	12.1355
2.5258	12.4242
2.5184	13.2608
2.5111	14.315
2.5038	14.5674
2.4966	14.2562
2.4894	15.2491
2.4823	15.8652
2.4752	15.7093
2.4681	16.8382
2.4611	18.3015
2.4541	19.1769
2.4471	20.6379
2.4402	21.5317
2.4333	22.3436
2.4265	23.4529
2.4197	24.4908
2.413	25.4244
2.4063	24.7783
2.3996	24.8247
2.3929	23.8462
2.3863	24.9559
2.3798	23.8062
2.3732	23.5075
2.3667	21.2635
2.3603	19.7126
2.3538	16.5756
2.3474	17.4795
2.3411	16.2927
2.3347	16.5396
2.3285	16.8982
2.3222	16.886
2.316	18.6348
2.3098	18.299
2.3036	18.5196
2.2975	18.9004
2.2914	19.7048
2.2854	20.4007
2.2793	21.0776
2.2733	21.6737
2.2674	23.4272
2.2614	23.0868
2.2555	24.287
2.2497	26.3372
2.2438	26.2848
2.238	26.4384
2.2322	26.7769
2.2265	27.5989
2.2208	26.8469
2.2151	28.0461
2.2094	27.4922
2.2038	28.969
2.1982	27.878
2.1926	28.5347
2.187	28.7678
2.1815	28.4177
2.176	28.1103
2.1706	27.9074
2.1651	28.8847
2.1597	29.411
2.1543	29.3553
2.149	28.2224
2.1436	29.2374
2.1383	29.0935
2.1331	29.4775
2.1278	30.1538
2.1226	29.0526
2.1174	30.538
2.1122	30.4103
2.1071	30.7638
2.1019	29.3458
2.0968	30.5856
2.0918	32.4845
2.0867	30.266
2.0817	30.4485
2.0767	30.9252
2.0717	30.7533
2.0667	31.7034
2.0618	33.2328
2.0569	32.7431
2.052	30.8227
2.0472	30.6758
2.0423	31.007
2.0375	31.1848
2.0327	30.8061
2.028	32.3158
2.0232	30.4603
2.0185	30.6086
2.0138	30.7485
2.0091	30.7163
2.0044	27.2878
1.9998	28.7342
