Name: Gypsum CaSO_4.2H_2O
Type: Mineral
Class: Sulfates
Particle Size: 0-45um
Sample No.: SO-2B
Owner: JPL
Wavelength Range: VNIR-SWIR
Origin: USA, Utah
Measurement: Hemispherical reflectance
X Units: Wavelength (micrometers)
Y Units: Reflectance (percent)
wavelength	value
0.4	92.08
0.403	92.14
0.406	92.26
0.409	92.38
0.412	92.38
0.415	92.38
0.418	92.51
0.421	92.51
0.424	92.51
0.427	92.69
0.43	92.75
0.433	92.81
0.436	92.87
0.439	92.92
0.442	92.92
0.445	93.1
0.448	93.16
0.451	93.22
0.454	93.3
0.457	93.36
0.46	93.49
0.463	93.43
0.466	93.55
0.469	93.5
0.472	93.68
0.475	93.69
0.478	93.76
0.481	93.82
0.484	93.65
0.487	93.88
0.49	93.89
0.493	93.79
0.496	93.85
0.499	93.86
0.502	93.86
0.505	93.92
0.508	94.15
0.511	94.27
0.514	94.27
0.517	94.21
0.52	94.27
0.523	94.33
0.526	94.27
0.529	94.38
0.532	94.44
0.535	94.27
0.538	94.45
0.541	94.45
0.544	94.57
0.547	94.51
0.55	94.74
0.553	94.79
0.556	94.97
0.559	94.87
0.562	95.37
0.565	95.2
0.568	95.2
0.571	94.97
0.574	94.99
0.577	94.88
0.58	95.06
0.583	94.76
0.586	94.88
0.589	95.18
0.592	95.12
0.595	95.12
0.598	95.28
0.601	95.38
0.604	95.14
0.607	95.31
0.61	95.2
0.613	95.19
0.616	95.25
0.619	95.2
0.622	95.02
0.625	95.14
0.628	95.19
0.631	95.2
0.634	95.14
0.637	95.25
0.64	95.36
0.643	95.14
0.646	95.14
0.649	95.14
0.652	95.3
0.655	95.25
0.658	95.42
0.661	95.25
0.664	95.19
0.667	95.19
0.67	95.26
0.673	95.25
0.676	95.26
0.679	95.3
0.682	95.42
0.685	95.25
0.688	95.3
0.691	95.13
0.694	95.42
0.697	95.36
0.7	95.38
0.703	95.2
0.706	95.36
0.709	95.25
0.712	95.42
0.715	95.53
0.718	95.25
0.721	95.36
0.724	95.3
0.727	95.3
0.73	95.25
0.733	95.3
0.736	95.48
0.739	95.36
0.742	95.19
0.745	95.3
0.748	95.19
0.751	95.25
0.754	95.08
0.757	95.25
0.76	95.35
0.763	95.08
0.766	95.07
0.769	95.07
0.772	95.13
0.775	95.13
0.778	95.07
0.781	95.29
0.784	95.29
0.787	95.07
0.79	95.25
0.793	95.19
0.796	95.35
0.799	95.26
0.808	95.39
0.82	95.34
0.832	95.46
0.844	95.4
0.856	95.4
0.868	95.46
0.88	95.41
0.892	95.34
0.904	95.17
0.916	95.11
0.928	95.11
0.94	95.06
0.952	94.82
0.964	94.45
0.976	93.91
0.988	93.5
1	93.57
1.012	94.09
1.024	94.52
1.036	94.81
1.048	95.11
1.06	94.99
1.072	95.05
1.084	94.97
1.096	94.97
1.108	94.73
1.12	94.62
1.132	94.27
1.144	93.74
1.156	92.37
1.168	90.8
1.18	90.09
1.192	90.03
1.204	89.85
1.216	90.55
1.228	90.57
1.24	91.25
1.252	91.72
1.264	91.81
1.276	91.93
1.288	91.96
1.3	91.72
1.312	91.18
1.324	90.4
1.336	89.28
1.348	88
1.36	87.02
1.372	85.96
1.384	85.33
1.396	84.16
1.408	81.32
1.42	77.03
1.432	72.6
1.444	67.58
1.456	71.68
1.468	73.19
1.48	73.06
1.492	73.05
1.504	76.06
1.516	76.76
1.528	76.05
1.54	76.49
1.552	79.02
1.564	81.1
1.576	82.44
1.588	83.63
1.6	84.88
1.612	85.96
1.624	86.78
1.636	87.64
1.648	88.29
1.66	88.61
1.672	88.64
1.684	88.15
1.696	86.87
1.708	84.46
1.72	81.26
1.732	77.79
1.744	75.83
1.756	76.56
1.768	77.29
1.78	78.47
1.792	80.28
1.804	81.64
1.816	82.3
1.828	82.42
1.84	81.85
1.852	80.29
1.864	76.85
1.876	71.47
1.888	65.34
1.9	58.37
1.912	50.33
1.924	41.65
1.936	35.42
1.948	36.55
1.96	41.44
1.972	44.61
1.984	48.99
1.996	56.95
2.008	64.13
2.02	68.18
2.032	70.3
2.044	71.41
2.056	71.65
2.068	71.52
2.08	71.33
2.092	70.57
2.104	69.47
2.116	68.22
2.128	67.05
2.14	65.94
2.152	64.38
2.164	63.19
2.176	62.24
2.188	61.51
2.2	60.32
2.212	59.61
2.224	60.48
2.236	61.85
2.248	62.07
2.26	61.78
2.272	62.26
2.284	63.32
2.296	64.17
2.308	64.26
2.32	64.07
2.332	63.36
2.344	62.12
2.356	60.02
2.368	57.2
2.38	53.39
2.392	48.97
2.404	44.97
2.416	41.98
2.428	40.42
2.44	39.36
2.452	38.5
2.464	37.5
2.476	36.86
2.488	36.95
2.5	37.37
