Name: Sandstone (Flagstone)
Type: Rock
Class: Sedimentary
Subclass: Sandstone
Particle Size: Solid surface
Sample No.: Ward61.txt
Owner: JPL
Origin: Ward's Collection of American Rocks.  Sample locality - near Masonville, Delaware County, New York.
Description: A very fine, brownish sandstone.  Quartz grains, mica flakes
Measurement: Hemispherical reflectance
X Units: Wavelength (micrometers)
Y Units: Reflectance (percent)
wavelength	value
15.3871	3.70412
15.118	3.41259
14.8581	3.56503
14.6069	3.70154
14.3642	3.90397
14.1293	3.55542
13.9021	4.04671
13.682	4.43779
13.4687	4.74846
13.2621	5.05473
13.0616	5.28575
12.8672	6.72298
12.6784	5.66334
12.4951	6.41465
12.317	3.58556
12.1439	3.81574
11.9757	4.58957
11.812	4.87842
11.6527	5.4217
11.4977	5.99613
11.3468	6.63921
11.1997	7.19551
11.0564	7.8323
10.9168	7.88501
10.7806	8.13896
10.6478	8.80105
10.5182	9.68911
10.3917	11.3484
10.2683	13.4013
10.1477	15.8581
10.0299	17.1647
9.9148	18.7155
9.8024	19.9859
9.6925	22.8671
9.585	25.3149
9.4798	23.9619
9.377	25.5275
9.2763	28.1246
9.1778	28.8554
9.0814	28.2114
8.987	26.9425
8.8945	25.4102
8.8039	23.0192
8.7151	19.9365
8.6281	15.3305
8.5428	19.7907
8.4592	19.7716
8.3772	19.9204
8.2967	20.3655
8.2179	20.8378
8.1404	18.2894
8.0645	13.0787
7.9899	9.57757
7.9167	6.88135
7.8449	5.29396
7.7743	4.78208
7.705	4.17302
7.6369	3.62986
7.57	3.13862
7.5043	3.06667
7.4397	3.13371
7.3762	3.10975
7.3138	3.05895
7.2524	3.01431
7.1921	3.02455
7.1327	2.9163
7.0743	2.80719
7.0169	2.73547
6.9604	2.93052
6.9047	3.06678
6.85	3.10783
6.7962	3.17674
6.7431	3.29928
6.6909	3.37015
6.6395	3.59825
6.5889	3.54934
6.539	3.44921
6.49	3.87219
6.4416	3.96154
6.3939	3.76596
6.347	3.60393
6.3007	3.34969
6.2551	3.29988
6.2101	3.12774
6.1658	3.03119
6.1222	3.14641
6.0791	3.23052
6.0366	3.24917
5.9948	3.37432
5.9535	3.15703
5.9127	3.18107
5.8726	3.28214
5.8329	3.61887
5.7938	3.66046
5.7552	3.89006
5.7172	4.23052
5.6796	4.12804
5.6425	3.89321
5.6059	3.80772
5.5698	3.85941
5.5341	3.87122
5.4989	3.98723
5.4641	4.20245
5.4298	4.24796
5.3959	3.97281
5.3624	3.76703
5.3294	3.9563
5.2967	4.08841
5.2644	4.24897
5.2326	4.59789
5.2011	4.84809
5.17	4.87391
5.1392	4.94479
5.1088	5.02505
5.0788	5.17928
5.0491	4.90094
5.0198	4.99608
4.9908	5.20684
4.9622	5.45855
4.9338	5.79475
4.9058	6.22442
4.8781	7.04079
4.8508	7.6127
4.8237	7.86725
4.7969	8.21276
4.7704	8.31987
4.7443	8.7205
4.7184	8.87453
4.6927	8.81093
4.6674	8.92489
4.6423	9.50534
4.6175	9.77126
4.593	10.1683
4.5687	10.4962
4.5447	10.3857
4.5209	10.3578
4.4974	9.79327
4.4741	9.65454
4.451	10.0304
4.4282	10.3321
4.4057	10.6705
4.3833	11.0429
4.3612	11.5233
4.3393	11.6606
4.3176	11.6723
4.2962	11.622
4.2749	11.5693
4.2539	11.8794
4.233	11.7117
4.2124	12.1778
4.192	12.5083
4.1717	12.4574
4.1517	12.7233
4.1319	13.0367
4.1122	12.9833
4.0927	13.1168
4.0734	13.2371
4.0543	13.1783
4.0354	13.1438
4.0166	13.0255
3.9981	13.0176
3.9796	12.9666
3.9614	13.1219
3.9433	13.1444
3.9254	13.4105
3.9077	13.5093
3.8901	13.2401
3.8726	13.4745
3.8554	13.3813
3.8382	13.6166
3.8213	13.3849
3.8045	13.4799
3.7878	13.4613
3.7713	13.7172
3.7549	13.6101
3.7386	13.4718
3.7225	13.548
3.7066	13.5313
3.6907	13.6692
3.675	13.6042
3.6595	13.5441
3.644	13.4829
3.6287	13.1875
3.6136	13.0207
3.5985	12.9717
3.5836	12.6372
3.5688	12.4572
3.5541	12.1868
3.5396	12.0756
3.5251	12.0306
3.5108	11.8293
3.4966	11.6334
3.4825	11.6261
3.4685	11.613
3.4547	11.4616
3.4409	11.3989
3.4273	10.9532
3.4137	10.9541
3.4003	10.3765
3.387	10.4506
3.3738	10.1292
3.3606	10.0518
3.3476	10.0219
3.3347	9.66103
3.3219	9.49784
3.3092	9.84711
3.2965	9.28035
3.284	9.06354
3.2716	9.15853
3.2593	9.03698
3.247	8.98613
3.2348	9.12565
3.2228	9.20001
3.2108	8.6865
3.1989	8.4939
3.1871	8.31798
3.1754	8.3485
3.1638	8.24036
3.1523	8.10171
3.1408	7.79792
3.1294	7.66917
3.1181	7.4241
3.1069	7.47963
3.0958	7.04254
3.0848	6.43202
3.0738	6.93681
3.0629	6.03582
3.0521	6.39383
3.0413	6.07256
3.0307	6.22226
3.0201	6.15519
3.0096	5.92978
2.9991	6.53133
2.9887	6.15695
2.9784	5.91926
2.9682	5.05591
2.9581	6.10459
2.948	6.25076
2.9379	5.6027
2.928	6.06679
2.9181	6.21836
2.9083	6.46724
2.8985	6.08398
2.8888	6.18868
2.8792	6.21127
2.8697	7.20836
2.8602	6.14514
2.8507	6.57893
2.8413	6.51815
2.832	6.19795
2.8228	6.63926
2.8136	5.37236
2.8045	6.41899
2.7954	4.77829
2.7864	6.31524
2.7774	6.45685
2.7685	4.5322
2.7597	5.16583
2.7509	4.66625
2.7422	4.67016
2.7335	5.25183
2.7249	6.52926
2.7163	8.45933
2.7078	11.3538
2.6994	13.2315
2.691	14.7167
2.6826	15.484
2.6743	16.1568
2.666	16.6503
2.6578	17.0378
2.6497	16.7197
2.6416	17.082
2.6336	17.1768
2.6256	17.015
2.6176	17.1065
2.6097	17.046
2.6018	16.8447
2.594	17.7218
2.5863	17.4699
2.5785	17.1409
2.5709	17.9834
2.5633	18.2337
2.5557	17.7709
2.5481	18.0027
2.5406	18.0436
2.5332	17.8176
2.5258	18.0801
2.5184	18.1863
2.5111	17.7512
2.5038	17.4424
2.4966	17.8571
2.4894	17.8219
2.4823	17.9198
2.4752	18.0039
2.4681	17.792
2.4611	18.2064
2.4541	17.8827
2.4471	17.8154
2.4402	17.906
2.4333	18.2181
2.4265	18.2694
2.4197	18.6582
2.413	19.2245
2.4063	18.1085
2.3996	18.2144
2.3929	18.8028
2.3863	18.3684
2.3798	18.3162
2.3732	18.4513
2.3667	18.2558
2.3603	17.7145
2.3538	18.1765
2.3474	18.6925
2.3411	17.7157
2.3347	18.6978
2.3285	18.4139
2.3222	20.151
2.316	19.02
2.3098	19.4083
2.3036	19.8359
2.2975	19.2171
2.2914	18.9735
2.2854	20.2735
2.2793	19.7635
2.2733	19.853
2.2674	19.2388
2.2614	19.2447
2.2555	19.2133
2.2497	19.5448
2.2438	20.1877
2.238	19.0236
2.2322	19.6525
2.2265	18.7415
2.2208	19.9691
2.2151	19.7201
2.2094	19.0256
2.2038	19.0123
2.1982	19.2669
2.1926	19.1574
2.187	19.2885
2.1815	20.0716
2.176	19.6937
2.1706	21.27
2.1651	20.478
2.1597	20.9529
2.1543	20.9496
2.149	21.7667
2.1436	20.4873
2.1383	21.0186
2.1331	21.3161
2.1278	21.1162
2.1226	21.0281
2.1174	21.4154
2.1122	21.0992
2.1071	21.4147
2.1019	21.5643
2.0968	20.5146
2.0918	21.525
2.0867	21.2575
2.0817	20.0229
2.0767	23.2869
2.0717	21.01
2.0667	22.4502
2.0618	22.8616
2.0569	24.0572
2.052	22.7555
2.0472	20.0424
2.0423	23.2287
2.0375	21.3879
2.0327	21.0077
2.028	18.6652
2.0232	21.1171
2.0185	21.2195
2.0138	21.7366
2.0091	22.8983
2.0044	20.292
1.9998	21.0891
