Name: Smithsonite PbCO_3
Type: Mineral
Class: Carbonates
Particle Size: 45-125um
Sample No.: C-11A
Owner: JPL
Origin: None.
Measurement: Hemispherical reflectance
X Units: Wavelength (micrometers)
Y Units: Reflectance (percent)
wavelength	value
2.5	43.3032
2.494	44.0792
2.488	45.0644
2.482	46.266
2.476	47.8558
2.47	49.3159
2.464	50.9329
2.458	52.4617
2.452	53.77
2.446	54.9021
2.44	56.0701
2.434	56.8497
2.428	57.712
2.422	58.512
2.416	59.2248
2.41	59.8462
2.404	60.0777
2.398	59.7028
2.392	58.5148
2.386	56.3195
2.38	53.7945
2.374	51.6084
2.368	50.4139
2.362	50.0825
2.356	50.3648
2.35	50.9961
2.344	51.6375
2.338	52.1266
2.332	52.5462
2.326	52.9523
2.32	53.4897
2.314	54.2855
2.308	55.142
2.302	56.1237
2.296	57.3174
2.29	58.4102
2.284	59.6391
2.278	60.6763
2.272	61.6819
2.266	62.6523
2.26	63.579
2.254	64.5005
2.248	65.3949
2.242	66.1386
2.236	66.8696
2.23	67.541
2.224	68.2209
2.218	68.8002
2.212	69.4126
2.206	69.775
2.2	70.1298
2.194	70.4524
2.188	70.5422
2.182	70.6066
2.176	70.553
2.17	70.3925
2.164	70.449
2.158	70.6464
2.152	70.8996
2.146	71.194
2.14	71.5023
2.134	71.6193
2.128	71.547
2.122	71.4678
2.116	71.2495
2.11	70.982
2.104	70.9053
2.098	70.7265
2.092	70.7506
2.086	70.798
2.08	70.8813
2.074	70.8612
2.068	70.8662
2.062	70.8296
2.056	70.8845
2.05	70.8754
2.044	70.8639
2.038	70.7982
2.032	70.6647
2.026	70.3978
2.02	70.0293
2.014	69.4256
2.008	69.2906
2.002	69.4282
1.996	69.8229
1.99	70.0225
1.984	70.1457
1.978	70.2583
1.972	70.4132
1.966	70.6201
1.96	70.7871
1.954	70.9751
1.948	71.2363
1.942	71.476
1.936	71.7248
1.93	72.0727
1.924	72.4621
1.918	73.0297
1.912	73.5105
1.906	73.9712
1.9	73.9684
1.894	73.8986
1.888	74.4839
1.882	75.2705
1.876	75.9535
1.87	76.5692
1.864	76.9267
1.858	77.2645
1.852	77.5887
1.846	77.8837
1.84	78.1704
1.834	78.4078
1.828	78.676
1.822	78.9217
1.816	79.1495
1.81	79.3097
1.804	79.455
1.798	79.5444
1.792	79.6787
1.786	79.6407
1.78	79.5909
1.774	79.5688
1.768	79.6615
1.762	79.6985
1.756	79.744
1.75	79.87
1.744	80.0573
1.738	80.1983
1.732	80.2134
1.726	80.4312
1.72	80.4957
1.714	80.6837
1.708	80.7471
1.702	80.8094
1.696	81.0035
1.69	81.097
1.684	81.1215
1.678	81.2348
1.672	81.2352
1.666	81.4183
1.66	81.4307
1.654	81.4726
1.648	81.5008
1.642	81.6161
1.636	81.6401
1.63	81.7358
1.624	81.8476
1.618	81.9318
1.612	81.9477
1.606	82.0518
1.6	82.1103
1.594	82.1493
1.588	82.1475
1.582	82.0189
1.576	82.0109
1.57	82.0316
1.564	82.1844
1.558	82.1256
1.552	82.2043
1.546	82.2016
1.54	82.1793
1.534	82.2382
1.528	82.223
1.522	82.2703
1.516	82.2385
1.51	82.2256
1.504	82.2127
1.498	82.2396
1.492	82.2021
1.486	82.1333
1.48	82.1785
1.474	82.161
1.468	82.1274
1.462	82.2588
1.456	82.1614
1.45	82.2734
1.444	82.2942
1.438	82.3596
1.432	82.3701
1.426	82.4787
1.42	82.4828
1.414	82.4039
1.408	83.0025
1.402	83.3073
1.396	83.5375
1.39	83.588
1.384	83.6044
1.378	83.6195
1.372	83.4536
1.366	83.3575
1.36	83.2354
1.354	83.0085
1.348	82.9457
1.342	82.5575
1.336	82.4488
1.33	82.2108
1.324	82.016
1.318	81.7666
1.312	81.5295
1.306	81.2964
1.3	81.0688
1.294	80.8759
1.288	80.5661
1.282	80.2926
1.276	80.0302
1.27	79.7236
1.264	79.5439
1.258	79.2672
1.252	79.0101
1.246	78.7342
1.24	78.5197
1.234	78.2951
1.228	78.0526
1.222	77.7457
1.216	77.561
1.21	77.4612
1.204	77.1643
1.198	76.9983
1.192	76.8828
1.186	76.6493
1.18	76.5465
1.174	76.3411
1.168	76.1827
1.162	76.0591
1.156	75.8786
1.15	75.7463
1.144	75.5343
1.138	75.3345
1.132	75.0861
1.126	74.9481
1.12	74.7363
1.114	74.4452
1.108	74.1867
1.102	73.8381
1.096	73.5812
1.09	73.2341
1.084	72.9468
1.078	72.5981
1.072	72.2702
1.066	71.9735
1.06	71.5179
1.054	71.1626
1.048	70.7988
1.042	70.416
1.036	70.1013
1.03	69.7233
1.024	69.4002
1.018	69.1598
1.012	68.9032
1.006	68.5828
1	68.3277
0.994	68.1239
0.988	67.9225
0.982	67.8028
0.976	67.6607
0.97	67.5737
0.964	67.527
0.958	67.5272
0.952	67.4839
0.946	67.5811
0.94	67.6905
0.934	67.7561
0.928	67.8927
0.922	68.036
0.916	68.2733
0.91	68.5278
0.904	68.7746
0.898	69.1376
0.892	69.3901
0.886	69.7275
0.88	70.1578
0.874	70.4699
0.868	70.9167
0.862	71.2801
0.856	72.0399
0.85	72.6152
0.844	73.0545
0.838	73.5109
0.832	73.9592
0.826	74.4755
0.82	74.8531
0.814	75.3526
0.808	75.8191
0.802	76.2375
0.796	76.6302
0.79	77.0561
0.784	77.4335
0.778	77.8248
0.772	78.1818
0.766	78.5733
0.76	78.9572
0.754	79.3032
0.748	79.657
0.742	79.9729
0.736	80.3047
0.73	80.6565
0.724	80.9848
0.718	81.3304
0.712	81.6684
0.706	81.9544
0.7	82.2953
0.694	82.6497
0.688	82.9885
0.682	83.317
0.676	83.635
0.67	83.9876
0.664	84.3064
0.658	84.6377
0.652	84.9598
0.646	85.2602
0.64	85.5402
0.634	85.83
0.628	86.0713
0.622	86.2818
0.616	86.4932
0.61	86.6752
0.604	86.8184
0.598	86.9749
0.592	87.0803
0.586	87.0311
0.58	86.8138
0.574	86.4802
0.568	86.0005
0.562	85.338
0.556	84.6656
0.55	84.0056
0.544	83.507
0.538	83.1913
0.532	82.9555
0.526	82.6944
0.52	82.5674
0.514	82.5879
0.508	82.7589
0.502	82.9735
0.496	83.1216
0.49	83.1206
0.484	82.9258
0.478	82.8814
0.472	83.0953
0.466	83.2968
0.46	83.3472
0.454	83.1918
0.448	82.9407
0.442	82.5685
0.436	82.0893
0.43	81.4746
0.424	80.782
0.418	79.9806
0.412	79.0476
0.406	78.507
0.4	77.4423
