Name: Topaz Al_2SiO_4(F,OH)_2
Type: Mineral
Class: Silicates
Subclass: Nesosilicates
Particle Size: 125-500um
Sample No.: NS-6A
Owner: JPL
Origin: Australia, Western Australia, Grossmont.
Measurement: Hemispherical reflectance
X Units: Wavelength (micrometers)
Y Units: Reflectance (percent)
wavelength	value
2.5	21.9713
2.494	23.6104
2.488	25.4565
2.482	27.2135
2.476	28.1535
2.47	28.9889
2.464	30.248
2.458	31.8434
2.452	33.5983
2.446	35.2346
2.44	36.178
2.434	36.4508
2.428	36.3122
2.422	36.3957
2.416	36.7914
2.41	37.6972
2.404	38.6839
2.398	39.4987
2.392	40.204
2.386	40.6326
2.38	40.9672
2.374	41.1924
2.368	41.5246
2.362	42.0872
2.356	42.5269
2.35	42.9114
2.344	42.9211
2.338	42.9185
2.332	42.9723
2.326	43.3279
2.32	43.955
2.314	44.8128
2.308	45.6635
2.302	46.5287
2.296	47.542
2.29	48.599
2.284	49.4721
2.278	49.5598
2.272	48.7796
2.266	47.4254
2.26	46.8562
2.254	48.0356
2.248	49.6928
2.242	50.4078
2.236	50.3267
2.23	49.9943
2.224	49.0461
2.218	47.624
2.212	46.645
2.206	46.4108
2.2	46.7964
2.194	47.3337
2.188	47.553
2.182	47.094
2.176	46.2662
2.17	45.7697
2.164	45.0668
2.158	43.6603
2.152	42.6841
2.146	43.2881
2.14	44.7985
2.134	46.9097
2.128	48.7379
2.122	49.3631
2.116	48.7656
2.11	47.3727
2.104	44.7308
2.098	39.3584
2.092	28.288
2.086	15.4098
2.08	15.5437
2.074	29.8905
2.068	42.441
2.062	47.9072
2.056	50.1491
2.05	51.2325
2.044	51.8746
2.038	52.2232
2.032	52.4535
2.026	52.4753
2.02	52.5294
2.014	52.4589
2.008	52.4884
2.002	52.6179
1.996	52.6211
1.99	52.6638
1.984	52.6235
1.978	52.5954
1.972	52.4218
1.966	52.396
1.96	52.3655
1.954	52.3945
1.948	52.3463
1.942	52.322
1.936	52.3154
1.93	52.4107
1.924	52.4441
1.918	52.3843
1.912	52.5488
1.906	52.5996
1.9	52.7875
1.894	53.0762
1.888	53.2372
1.882	53.3752
1.876	53.5368
1.87	53.5607
1.864	53.5924
1.858	53.5958
1.852	53.668
1.846	53.6938
1.84	53.6836
1.834	53.7172
1.828	53.7859
1.822	53.8131
1.816	53.8563
1.81	53.8886
1.804	53.8567
1.798	53.7978
1.792	53.7742
1.786	53.8275
1.78	53.7879
1.774	53.7482
1.768	53.7057
1.762	53.6855
1.756	53.7003
1.75	53.7374
1.744	53.7004
1.738	53.7258
1.732	53.7053
1.726	53.5432
1.72	53.6097
1.714	53.759
1.708	53.8355
1.702	53.7718
1.696	53.6228
1.69	53.043
1.684	52.088
1.678	53.1315
1.672	53.6405
1.666	53.7658
1.66	53.8343
1.654	53.7884
1.648	53.7456
1.642	53.7427
1.636	53.7619
1.63	53.7745
1.624	53.7456
1.618	53.7367
1.612	53.7391
1.606	53.6334
1.6	53.5969
1.594	53.6751
1.588	53.7008
1.582	53.684
1.576	53.7516
1.57	53.7476
1.564	53.7297
1.558	53.7669
1.552	53.6868
1.546	53.7386
1.54	53.7074
1.534	53.7032
1.528	53.6696
1.522	53.6676
1.516	53.625
1.51	53.7042
1.504	53.6176
1.498	53.6291
1.492	53.5821
1.486	53.5298
1.48	53.5759
1.474	53.4744
1.468	53.4326
1.462	53.4048
1.456	53.3756
1.45	53.3544
1.444	53.3191
1.438	53.3181
1.432	53.3101
1.426	53.2332
1.42	52.9275
1.414	50.9375
1.408	41.7476
1.402	41.4611
1.396	52.1703
1.39	53.0224
1.384	53.1977
1.378	53.0686
1.372	52.9687
1.366	53.1738
1.36	53.132
1.354	52.9819
1.348	52.8946
1.342	53.0457
1.336	53.2893
1.33	53.3564
1.324	53.4396
1.318	53.4673
1.312	53.3515
1.306	53.437
1.3	53.4363
1.294	53.4528
1.288	53.4235
1.282	53.4702
1.276	53.4522
1.27	53.4573
1.264	53.4722
1.258	53.5152
1.252	53.4523
1.246	53.4308
1.24	53.4276
1.234	53.439
1.228	53.4339
1.222	53.4366
1.216	53.4113
1.21	53.1449
1.204	53.3722
1.198	53.4324
1.192	53.4689
1.186	53.4234
1.18	53.3933
1.174	53.4649
1.168	53.4214
1.162	53.4213
1.156	53.4028
1.15	53.4036
1.144	53.3927
1.138	53.4045
1.132	53.425
1.126	53.3908
1.12	53.4139
1.114	53.3921
1.108	53.3565
1.102	53.3857
1.096	53.4342
1.09	53.4132
1.084	53.3646
1.078	53.4189
1.072	53.4507
1.066	53.4186
1.06	53.4104
1.054	53.3927
1.048	53.4299
1.042	53.3659
1.036	53.478
1.03	53.3945
1.024	53.3596
1.018	53.4008
1.012	53.3471
1.006	53.3673
1	53.3123
0.994	53.2964
0.988	53.2761
0.982	53.3027
0.976	53.3152
0.97	53.3275
0.964	53.068
0.958	53.0368
0.952	53.2972
0.946	53.2662
0.94	53.2716
0.934	53.2512
0.928	53.2798
0.922	53.2084
0.916	53.2248
0.91	53.2208
0.904	53.242
0.898	53.2329
0.892	53.1519
0.886	53.2139
0.88	53.1552
0.874	53.1331
0.868	53.1229
0.862	53.1931
0.856	53.3813
0.85	53.4044
0.844	53.3578
0.838	53.345
0.832	53.3694
0.826	53.3127
0.82	53.3055
0.814	53.3038
0.808	53.2661
0.802	53.2042
0.796	53.1568
0.79	53.1278
0.784	53.0808
0.778	53.0029
0.772	52.9829
0.766	52.9371
0.76	52.9235
0.754	52.8738
0.748	52.8214
0.742	52.7973
0.736	52.7418
0.73	52.7068
0.724	52.6851
0.718	52.6691
0.712	52.6615
0.706	52.6231
0.7	52.6087
0.694	52.5684
0.688	52.5578
0.682	52.5273
0.676	52.5232
0.67	52.4993
0.664	52.4946
0.658	52.4863
0.652	52.4797
0.646	52.4694
0.64	52.4778
0.634	52.4873
0.628	52.4954
0.622	52.5037
0.616	52.5319
0.61	52.5412
0.604	52.5635
0.598	52.6197
0.592	52.667
0.586	52.7116
0.58	52.7372
0.574	52.7553
0.568	52.7981
0.562	52.8145
0.556	52.8518
0.55	52.8657
0.544	52.891
0.538	52.9011
0.532	52.9084
0.526	52.9176
0.52	52.9344
0.514	52.9471
0.508	52.9553
0.502	52.9505
0.496	52.9216
0.49	52.9365
0.484	52.7983
0.478	52.2495
0.472	52.4408
0.466	52.3508
0.46	52.2399
0.454	52.2137
0.448	52.1405
0.442	52.0204
0.436	51.9226
0.43	51.8599
0.424	51.7941
0.418	51.7274
0.412	51.657
0.406	51.5876
0.4	51.5148
