Name: Diopside CaMg(SiO_3)_2
Type: Mineral
Class: Silicates
Subclass: Inosilicates
Particle Size: 0-45um
Sample No.: IN-9B
Owner: JPL
Wavelength Range: VNIR-SWIR
Origin: Canada, Quebec
Measurement: Hemispherical reflectance
X Units: Wavelength (micrometers)
Y Units: Reflectance (percent)
wavelength	value
0.4	22.98
0.403	23.46
0.406	23.67
0.409	23.97
0.412	24.18
0.415	24.6
0.418	24.94
0.421	25.28
0.424	25.73
0.427	26.05
0.43	26.57
0.433	26.98
0.436	27.31
0.439	27.72
0.442	28.09
0.445	28.42
0.448	28.67
0.451	28.86
0.454	29.03
0.457	29.15
0.46	29.22
0.463	29.42
0.466	29.76
0.469	29.94
0.472	30.04
0.475	30.17
0.478	30.47
0.481	30.73
0.484	31
0.487	31.23
0.49	31.39
0.493	31.75
0.496	31.92
0.499	32.22
0.502	32.38
0.505	32.51
0.508	32.76
0.511	32.94
0.514	33.24
0.517	33.28
0.52	33.5
0.523	33.71
0.526	33.87
0.529	33.95
0.532	34
0.535	34.07
0.538	34.25
0.541	34.3
0.544	34.48
0.547	34.42
0.55	34.5
0.553	34.57
0.556	34.7
0.559	34.75
0.562	34.79
0.565	34.87
0.568	34.9
0.571	34.9
0.574	34.72
0.577	34.92
0.58	34.93
0.583	34.8
0.586	35.06
0.589	34.88
0.592	34.99
0.595	34.94
0.598	35
0.601	35.07
0.604	35.1
0.607	35.14
0.61	35.14
0.613	35.18
0.616	35.12
0.619	35.05
0.622	35.14
0.625	35.15
0.628	35.12
0.631	35.2
0.634	35.25
0.637	35.19
0.64	35.28
0.643	35.37
0.646	35.34
0.649	35.33
0.652	35.41
0.655	35.53
0.658	35.56
0.661	35.51
0.664	35.62
0.667	35.59
0.67	35.62
0.673	35.72
0.676	35.67
0.679	35.86
0.682	35.8
0.685	35.76
0.688	35.88
0.691	35.89
0.694	35.99
0.697	35.83
0.7	35.9
0.703	36.05
0.706	36.06
0.709	36.22
0.712	36.16
0.715	36.32
0.718	36.35
0.721	36.35
0.724	36.33
0.727	36.44
0.73	36.55
0.733	36.51
0.736	36.55
0.739	36.62
0.742	36.8
0.745	36.91
0.748	36.9
0.751	37.15
0.754	37.18
0.757	37.18
0.76	37.31
0.763	37.42
0.766	37.44
0.769	37.62
0.772	37.71
0.775	37.77
0.778	37.73
0.781	37.79
0.784	37.68
0.787	37.68
0.79	37.94
0.793	38.01
0.796	37.97
0.799	37.91
0.808	38.05
0.82	38.11
0.832	38.11
0.844	38.23
0.856	38.1
0.868	38.14
0.88	38.08
0.892	38.08
0.904	38.02
0.916	37.91
0.928	37.98
0.94	37.93
0.952	37.9
0.964	37.7
0.976	37.54
0.988	37.35
1	37.26
1.012	37.13
1.024	36.92
1.036	36.98
1.048	36.93
1.06	37.07
1.072	37.25
1.084	37.6
1.096	38.03
1.108	38.41
1.12	38.81
1.132	39.24
1.144	39.5
1.156	39.8
1.168	40.09
1.18	40.35
1.192	40.53
1.204	40.75
1.216	40.98
1.228	41.17
1.24	41.35
1.252	41.53
1.264	41.7
1.276	41.86
1.288	42.06
1.3	42.1
1.312	42.3
1.324	42.4
1.336	42.56
1.348	42.61
1.36	42.83
1.372	42.81
1.384	42.57
1.396	42.49
1.408	42.97
1.42	43.02
1.432	43.12
1.444	43.3
1.456	43.43
1.468	43.57
1.48	43.66
1.492	43.8
1.504	43.83
1.516	43.88
1.528	43.98
1.54	44.03
1.552	44.12
1.564	44.26
1.576	44.26
1.588	44.3
1.6	44.37
1.612	44.31
1.624	44.35
1.636	44.41
1.648	44.48
1.66	44.47
1.672	44.48
1.684	44.59
1.696	44.66
1.708	44.63
1.72	44.63
1.732	44.64
1.744	44.61
1.756	44.64
1.768	44.64
1.78	44.58
1.792	44.63
1.804	44.63
1.816	44.64
1.828	44.55
1.84	44.51
1.852	44.57
1.864	44.52
1.876	44.43
1.888	44.31
1.9	44.14
1.912	43.97
1.924	44.02
1.936	44.04
1.948	44.11
1.96	44.15
1.972	44.17
1.984	44.24
1.996	44.22
2.008	44.37
2.02	44.41
2.032	44.43
2.044	44.46
2.056	44.38
2.068	44.35
2.08	44.39
2.092	44.29
2.104	44.41
2.116	44.43
2.128	44.38
2.14	44.21
2.152	44.11
2.164	43.98
2.176	43.91
2.188	43.91
2.2	43.81
2.212	43.79
2.224	43.74
2.236	43.69
2.248	43.6
2.26	43.57
2.272	43.45
2.284	43.17
2.296	42.76
2.308	42.49
2.32	42.64
2.332	43.06
2.344	43.37
2.356	43.36
2.368	43.28
2.38	43.21
2.392	43.19
2.404	43.25
2.416	43.32
2.428	43.28
2.44	43.33
2.452	43.29
2.464	43.36
2.476	43.27
2.488	43.54
2.5	43.78
