Name: Fluorite CaF_2
Type: Mineral
Class: Halides
Particle Size: 45-125um
Sample No.: H-2A
Owner: JPL
Wavelength Range: VNIR-SWIR
Origin: USA, Illinois, Hardin County, Rosiclare
Description: Purple fluorite.
Measurement: Hemispherical reflectance
X Units: Wavelength (micrometers)
Y Units: Reflectance (percent)
wavelength	value
0.4	77.64
0.403	77.52
0.406	77.5
0.409	77.45
0.412	77.35
0.415	77.42
0.418	77.33
0.421	77.33
0.424	77.31
0.427	77.16
0.43	77.29
0.433	77.22
0.436	77.35
0.439	77.37
0.442	77.17
0.445	77.28
0.448	77.24
0.451	77.06
0.454	77.03
0.457	76.97
0.46	77.02
0.463	76.84
0.466	76.77
0.469	76.63
0.472	76.71
0.475	76.53
0.478	76.48
0.481	76.4
0.484	76.09
0.487	75.97
0.49	75.82
0.493	75.63
0.496	75.61
0.499	75.48
0.502	75.25
0.505	75.1
0.508	74.86
0.511	74.7
0.514	74.47
0.517	74.28
0.52	74.19
0.523	74.06
0.526	73.96
0.529	73.83
0.532	73.74
0.535	73.55
0.538	73.65
0.541	73.76
0.544	73.79
0.547	74.01
0.55	74.11
0.553	74.29
0.556	74.37
0.559	74.68
0.562	75.34
0.565	75.4
0.568	75.72
0.571	75.99
0.574	76.09
0.577	76.54
0.58	76.74
0.583	77.01
0.586	77.4
0.589	77.68
0.592	78.12
0.595	78.45
0.598	78.68
0.601	78.96
0.604	79.32
0.607	79.59
0.61	79.88
0.613	80.22
0.616	80.3
0.619	80.5
0.622	80.81
0.625	81.08
0.628	81.37
0.631	81.46
0.634	81.67
0.637	82
0.64	82.02
0.643	82.26
0.646	82.36
0.649	82.62
0.652	82.85
0.655	82.89
0.658	83.09
0.661	83.09
0.664	83.36
0.667	83.39
0.67	83.63
0.673	83.74
0.676	83.71
0.679	83.83
0.682	83.97
0.685	84.1
0.688	84.17
0.691	84.12
0.694	84.33
0.697	84.42
0.7	84.39
0.703	84.56
0.706	84.65
0.709	84.82
0.712	84.7
0.715	84.85
0.718	84.88
0.721	85.05
0.724	84.97
0.727	84.94
0.73	85.04
0.733	85.23
0.736	85.27
0.739	85.11
0.742	85.2
0.745	85.29
0.748	85.31
0.751	85.53
0.754	85.5
0.757	85.47
0.76	85.47
0.763	85.52
0.766	85.64
0.769	85.59
0.772	85.52
0.775	85.76
0.778	85.71
0.781	85.8
0.784	85.83
0.787	85.77
0.79	85.86
0.793	85.99
0.796	85.97
0.799	86.09
0.808	86.23
0.82	86.27
0.832	86.39
0.844	86.44
0.856	86.54
0.868	86.64
0.88	86.7
0.892	86.76
0.904	86.77
0.916	86.83
0.928	86.94
0.94	86.98
0.952	87.1
0.964	87.1
0.976	86.94
0.988	87.08
1	87.11
1.012	87.25
1.024	87.23
1.036	87.25
1.048	87.31
1.06	87.24
1.072	87.28
1.084	87.35
1.096	87.27
1.108	87.3
1.12	87.49
1.132	87.49
1.144	87.41
1.156	87.42
1.168	87.4
1.18	87.29
1.192	87.35
1.204	87.45
1.216	87.25
1.228	87.38
1.24	87.26
1.252	87.3
1.264	87.25
1.276	87.2
1.288	87.32
1.3	87.28
1.312	87.18
1.324	87.21
1.336	87.24
1.348	87.25
1.36	87.35
1.372	87.27
1.384	87.21
1.396	87.15
1.408	86.96
1.42	86.97
1.432	86.93
1.444	87.09
1.456	87.14
1.468	87.18
1.48	87.26
1.492	87.22
1.504	87.4
1.516	87.53
1.528	87.49
1.54	87.57
1.552	87.54
1.564	87.54
1.576	87.56
1.588	87.49
1.6	87.57
1.612	87.52
1.624	87.57
1.636	87.5
1.648	87.64
1.66	87.68
1.672	87.82
1.684	87.87
1.696	87.85
1.708	87.84
1.72	87.88
1.732	87.86
1.744	87.9
1.756	87.77
1.768	87.67
1.78	87.73
1.792	87.77
1.804	87.71
1.816	87.69
1.828	87.65
1.84	87.61
1.852	87.52
1.864	87.55
1.876	87.45
1.888	87.18
1.9	86.98
1.912	86.63
1.924	86.75
1.936	86.71
1.948	86.75
1.96	86.89
1.972	87.1
1.984	87.23
1.996	87.52
2.008	87.72
2.02	87.88
2.032	87.95
2.044	88.03
2.056	88
2.068	88.15
2.08	88.21
2.092	88.27
2.104	88.32
2.116	88.63
2.128	88.53
2.14	88.5
2.152	88.39
2.164	88.27
2.176	88.05
2.188	87.97
2.2	87.96
2.212	87.85
2.224	87.94
2.236	88
2.248	88.02
2.26	87.93
2.272	87.97
2.284	87.92
2.296	87.87
2.308	87.87
2.32	88.16
2.332	88.2
2.344	88.26
2.356	88.27
2.368	88.15
2.38	88.14
2.392	88.17
2.404	88.05
2.416	87.99
2.428	88.01
2.44	87.93
2.452	87.85
2.464	87.78
2.476	87.76
2.488	88.01
2.5	88.54
