Name: Chlorite
Type: Mineral
Class: Silicates
Subclass: Phyllosilicates
Particle Size: 0-45um
Sample No.: PS-12C
Owner: JPL
Origin: USA, California.
Measurement: Hemispherical reflectance
X Units: Wavelength (micrometers)
Y Units: Reflectance (percent)
wavelength	value
2.5	49.4211
2.494	49.4935
2.488	49.4105
2.482	49.3959
2.476	49.6366
2.47	49.6704
2.464	50.2373
2.458	50.8074
2.452	51.7562
2.446	52.5515
2.44	53.2858
2.434	54.0117
2.428	54.533
2.422	55.1615
2.416	55.5089
2.41	55.4446
2.404	54.9113
2.398	54.1575
2.392	53.5912
2.386	53.2467
2.38	53.0985
2.374	52.8934
2.368	52.2617
2.362	51.2982
2.356	50.1426
2.35	48.8878
2.344	47.7983
2.338	46.8574
2.332	46.2559
2.326	46.1816
2.32	46.7552
2.314	47.4428
2.308	48.4445
2.302	49.2458
2.296	49.9852
2.29	51.0079
2.284	52.6284
2.278	54.3352
2.272	55.3041
2.266	55.5558
2.26	55.4254
2.254	55.173
2.248	55.1951
2.242	56.3549
2.236	58.6844
2.23	61.524
2.224	63.9699
2.218	65.7974
2.212	67.0556
2.206	67.9965
2.2	68.9409
2.194	69.5456
2.188	70.1728
2.182	70.7045
2.176	71.2404
2.17	71.7144
2.164	72.1055
2.158	72.3326
2.152	72.6517
2.146	72.7888
2.14	72.7744
2.134	72.7332
2.128	72.5949
2.122	72.2852
2.116	72.0213
2.11	71.8315
2.104	71.7265
2.098	71.8488
2.092	72.222
2.086	72.4308
2.08	72.4697
2.074	72.3331
2.068	72.1627
2.062	72.0195
2.056	71.7157
2.05	71.4825
2.044	71.0739
2.038	70.6181
2.032	69.9862
2.026	69.2585
2.02	68.6022
2.014	67.9336
2.008	67.5748
2.002	67.2309
1.996	66.9264
1.99	66.8473
1.984	66.8144
1.978	66.9987
1.972	67.2566
1.966	67.4183
1.96	67.5993
1.954	67.6791
1.948	68.1177
1.942	68.3641
1.936	68.5887
1.93	68.7552
1.924	68.858
1.918	69.0821
1.912	69.1957
1.906	69.3667
1.9	69.6926
1.894	69.9334
1.888	69.8053
1.882	69.8104
1.876	69.9695
1.87	70.2373
1.864	70.5962
1.858	70.8305
1.852	71.0754
1.846	71.2731
1.84	71.5402
1.834	71.6704
1.828	71.7168
1.822	71.6919
1.816	71.7526
1.81	71.8156
1.804	71.7767
1.798	71.7418
1.792	71.6289
1.786	71.5444
1.78	71.437
1.774	71.3071
1.768	71.2492
1.762	71.1239
1.756	71.001
1.75	70.8329
1.744	70.8127
1.738	70.6646
1.732	70.494
1.726	70.3358
1.72	70.2078
1.714	69.9618
1.708	69.7624
1.702	69.5881
1.696	69.2671
1.69	69.1357
1.684	68.9843
1.678	68.6807
1.672	68.5611
1.666	68.1726
1.66	67.9391
1.654	67.8279
1.648	67.5374
1.642	67.2163
1.636	66.9198
1.63	66.6677
1.624	66.3279
1.618	66.0405
1.612	65.7894
1.606	65.5214
1.6	65.1918
1.594	64.8264
1.588	64.4872
1.582	64.1814
1.576	63.7739
1.57	63.4332
1.564	63.1689
1.558	62.7695
1.552	62.5528
1.546	62.2452
1.54	61.9591
1.534	61.7626
1.528	61.4868
1.522	61.2373
1.516	61.1464
1.51	60.9096
1.504	60.724
1.498	60.5852
1.492	60.3557
1.486	60.0584
1.48	59.7384
1.474	59.4142
1.468	59.0371
1.462	58.4652
1.456	57.9587
1.45	57.4583
1.444	57.0574
1.438	56.8096
1.432	56.7159
1.426	56.6808
1.42	56.5259
1.414	55.8046
1.408	55.4822
1.402	55.055
1.396	52.747
1.39	50.6651
1.384	55.4523
1.378	56.262
1.372	56.0507
1.366	55.7959
1.36	55.4401
1.354	55.1186
1.348	54.6952
1.342	54.3445
1.336	53.978
1.33	53.6875
1.324	53.1725
1.318	52.9691
1.312	52.5048
1.306	52.1701
1.3	51.7481
1.294	51.3787
1.288	51.0038
1.282	50.6011
1.276	50.2468
1.27	50.0867
1.264	49.5348
1.258	49.1869
1.252	48.7865
1.246	48.4504
1.24	48.0337
1.234	47.6152
1.228	47.1974
1.222	46.8276
1.216	46.4357
1.21	46.0804
1.204	45.7081
1.198	45.3369
1.192	45.004
1.186	44.6965
1.18	44.3545
1.174	43.9345
1.168	43.6487
1.162	43.5151
1.156	43.2032
1.15	42.9078
1.144	42.7397
1.138	42.508
1.132	42.3036
1.126	42.0459
1.12	41.9604
1.114	41.8035
1.108	41.6797
1.102	41.5756
1.096	41.3225
1.09	41.3398
1.084	41.2491
1.078	41.2166
1.072	41.1313
1.066	41.1595
1.06	41.0934
1.054	41.0482
1.048	40.9767
1.042	41.0379
1.036	40.993
1.03	40.9807
1.024	40.88
1.018	40.8344
1.012	40.7784
1.006	40.6565
1	40.6252
0.994	40.4768
0.988	40.2898
0.982	40.0865
0.976	39.9697
0.97	39.7719
0.964	39.4518
0.958	39.217
0.952	38.9335
0.946	38.5833
0.94	38.4613
0.934	38.1223
0.928	37.8943
0.922	37.6602
0.916	37.3905
0.91	37.2748
0.904	37.1299
0.898	37.1164
0.892	37.0733
0.886	37.0496
0.88	37.0518
0.874	37.0865
0.868	37.1959
0.862	37.2686
0.856	37.4331
0.85	37.6084
0.844	37.7653
0.838	37.9829
0.832	38.1536
0.826	38.3686
0.82	38.5309
0.814	38.6221
0.808	38.6403
0.802	38.5917
0.796	38.4751
0.79	38.2875
0.784	37.9911
0.778	37.6537
0.772	37.2716
0.766	36.8764
0.76	36.4664
0.754	36.0707
0.748	35.7244
0.742	35.3851
0.736	35.1012
0.73	34.897
0.724	34.7195
0.718	34.6107
0.712	34.5476
0.706	34.5717
0.7	34.6407
0.694	34.7704
0.688	34.939
0.682	35.1806
0.676	35.4487
0.67	35.7482
0.664	36.089
0.658	36.3993
0.652	36.7748
0.646	37.1705
0.64	37.5714
0.634	37.9867
0.628	38.3817
0.622	38.7895
0.616	39.1667
0.61	39.525
0.604	39.8869
0.598	40.2184
0.592	40.5423
0.586	40.8117
0.58	41.0243
0.574	41.2044
0.568	41.3284
0.562	41.4075
0.556	41.3547
0.55	41.2882
0.544	41.1934
0.538	41.0785
0.532	40.9995
0.526	40.9972
0.52	40.9571
0.514	40.7806
0.508	40.4478
0.502	39.8895
0.496	39.0933
0.49	38.8271
0.484	38.249
0.478	37.504
0.472	36.5813
0.466	35.7132
0.46	34.9132
0.454	34.1994
0.448	33.7855
0.442	33.4344
0.436	32.5513
0.43	31.7759
0.424	30.8824
0.418	29.7777
0.412	28.8422
0.406	28.1213
0.4	27.6912
