Name: Biotite K(Mg,Fe^2+)_3(Al,Fe^3+)Si_3O_10(OH,F)_2
Type: Mineral
Class: Silicates
Subclass: Phyllosilicates
Particle Size: 125-500um
Sample No.: PS-23A
Owner: JPL
Origin: Unknown.
Measurement: Hemispherical reflectance
X Units: Wavelength (micrometers)
Y Units: Reflectance (percent)
wavelength	value
2.5	53.8947
2.494	53.6274
2.488	53.5392
2.482	53.4902
2.476	53.5112
2.47	53.4843
2.464	53.4276
2.458	53.3439
2.452	53.0711
2.446	53.0414
2.44	53.0362
2.434	52.78
2.428	52.6863
2.422	52.5055
2.416	52.2518
2.41	52.0163
2.404	51.8098
2.398	51.6175
2.392	51.6223
2.386	51.5479
2.38	51.6464
2.374	51.7589
2.368	51.8156
2.362	51.6599
2.356	51.4717
2.35	51.2529
2.344	50.9327
2.338	50.6695
2.332	50.7083
2.326	50.7869
2.32	50.9091
2.314	51.2782
2.308	51.5772
2.302	51.7899
2.296	52.0174
2.29	52.0534
2.284	52.144
2.278	52.0669
2.272	51.9635
2.266	51.8114
2.26	51.5698
2.254	51.3926
2.248	51.357
2.242	51.6209
2.236	51.7352
2.23	51.8816
2.224	51.8492
2.218	51.8575
2.212	51.8309
2.206	51.92
2.2	51.7958
2.194	51.7788
2.188	51.6429
2.182	51.6409
2.176	51.5637
2.17	51.5592
2.164	51.5048
2.158	51.4752
2.152	51.4154
2.146	51.2774
2.14	51.1654
2.134	50.8662
2.128	50.7855
2.122	50.4932
2.116	50.2045
2.11	49.835
2.104	49.5835
2.098	49.338
2.092	49.2732
2.086	49.2514
2.08	49.1262
2.074	49.0159
2.068	48.8633
2.062	48.8629
2.056	48.7414
2.05	48.5764
2.044	48.4154
2.038	48.3523
2.032	48.1311
2.026	47.972
2.02	47.8577
2.014	47.6335
2.008	47.5187
2.002	47.3064
1.996	47.1264
1.99	46.8931
1.984	46.6397
1.978	46.441
1.972	46.278
1.966	46.0144
1.96	45.8809
1.954	45.6457
1.948	45.3836
1.942	45.3038
1.936	45.1431
1.93	44.9427
1.924	44.7977
1.918	44.6101
1.912	44.5541
1.906	44.3179
1.9	44.2493
1.894	44.2116
1.888	44.0579
1.882	43.9654
1.876	43.8396
1.87	43.4734
1.864	43.5032
1.858	43.3325
1.852	43.1314
1.846	43.0182
1.84	42.8242
1.834	42.6123
1.828	42.4313
1.822	42.2167
1.816	42.0195
1.81	41.8561
1.804	41.5857
1.798	41.4984
1.792	41.3052
1.786	41.0666
1.78	40.8079
1.774	40.6158
1.768	40.431
1.762	40.2534
1.756	39.9939
1.75	39.7872
1.744	39.6168
1.738	39.4693
1.732	39.2574
1.726	39.065
1.72	38.8302
1.714	38.6094
1.708	38.3545
1.702	38.1462
1.696	37.9348
1.69	37.6547
1.684	37.4608
1.678	37.2851
1.672	36.9744
1.666	36.7542
1.66	36.5126
1.654	36.3036
1.648	36.0966
1.642	35.8784
1.636	35.5864
1.63	35.2977
1.624	35.1351
1.618	34.8076
1.612	34.6533
1.606	34.4152
1.6	34.1468
1.594	33.9162
1.588	33.68
1.582	33.4359
1.576	33.2478
1.57	32.9312
1.564	32.754
1.558	32.4512
1.552	32.3056
1.546	31.9778
1.54	31.7834
1.534	31.6264
1.528	31.3607
1.522	31.0747
1.516	30.9563
1.51	30.7545
1.504	30.488
1.498	30.2479
1.492	30.041
1.486	29.8666
1.48	29.6276
1.474	29.4151
1.468	29.1368
1.462	28.9077
1.456	28.7239
1.45	28.4348
1.444	28.2407
1.438	28.0202
1.432	27.8675
1.426	27.5916
1.42	27.3976
1.414	27.1245
1.408	26.9333
1.402	26.7148
1.396	26.4003
1.39	26.292
1.384	26.0503
1.378	25.8616
1.372	25.5581
1.366	25.3369
1.36	25.0715
1.354	24.8369
1.348	24.6663
1.342	23.5602
1.336	23.7253
1.33	23.6808
1.324	23.6095
1.318	23.4744
1.312	23.2407
1.306	23.0344
1.3	22.8127
1.294	22.5587
1.288	22.3588
1.282	22.1672
1.276	21.9513
1.27	21.7014
1.264	21.4511
1.258	21.2721
1.252	21.0927
1.246	20.9139
1.24	20.7502
1.234	20.5982
1.228	20.4596
1.222	20.3149
1.216	20.1398
1.21	20.0149
1.204	19.9231
1.198	19.786
1.192	19.7884
1.186	19.5499
1.18	19.4449
1.174	19.3811
1.168	19.2408
1.162	19.1843
1.156	19.0808
1.15	18.9733
1.144	18.856
1.138	18.8437
1.132	18.7604
1.126	18.7033
1.12	18.6281
1.114	18.6067
1.108	18.5774
1.102	18.6727
1.096	18.5257
1.09	18.5989
1.084	18.5731
1.078	18.4411
1.072	18.3805
1.066	18.4278
1.06	18.3784
1.054	18.3051
1.048	18.3196
1.042	18.3549
1.036	18.1689
1.03	17.9625
1.024	18.0498
1.018	17.9091
1.012	17.7598
1.006	17.7224
1	17.6473
0.994	17.4772
0.988	17.4338
0.982	17.2444
0.976	17.0837
0.97	16.9786
0.964	16.8474
0.958	16.8126
0.952	16.6182
0.946	16.6323
0.94	16.5026
0.934	16.4088
0.928	16.3587
0.922	16.3701
0.916	16.2954
0.91	16.2619
0.904	16.2364
0.898	16.2237
0.892	16.0957
0.886	16.1398
0.88	16.1492
0.874	16.0325
0.868	15.9943
0.862	16.0139
0.856	15.9801
0.85	15.9584
0.844	15.9203
0.838	15.8556
0.832	15.7634
0.826	15.6927
0.82	15.6027
0.814	15.4763
0.808	15.3579
0.802	15.2077
0.796	15.0007
0.79	14.8185
0.784	14.6046
0.778	14.406
0.772	14.2233
0.766	14.0195
0.76	13.7998
0.754	13.6248
0.748	13.4709
0.742	13.3676
0.736	13.2787
0.73	13.2097
0.724	13.166
0.718	13.1535
0.712	13.1533
0.706	13.1521
0.7	13.1326
0.694	13.1224
0.688	13.1149
0.682	13.1471
0.676	13.2016
0.67	13.2719
0.664	13.3311
0.658	13.3701
0.652	13.3972
0.646	13.4178
0.64	13.4414
0.634	13.459
0.628	13.4675
0.622	13.4533
0.616	13.4233
0.61	13.4011
0.604	13.3836
0.598	13.3564
0.592	13.3314
0.586	13.286
0.58	13.2222
0.574	13.1204
0.568	13.023
0.562	12.9395
0.556	12.8278
0.55	12.7142
0.544	12.5637
0.538	12.3901
0.532	12.249
0.526	12.1072
0.52	11.9453
0.514	11.7677
0.508	11.5802
0.502	11.3876
0.496	11.1669
0.49	10.961
0.484	10.7242
0.478	10.5342
0.472	10.3866
0.466	10.2622
0.46	10.1418
0.454	10.0194
0.448	9.90572
0.442	9.77704
0.436	9.6475
0.43	9.47477
0.424	9.30373
0.418	9.21133
0.412	9.19432
0.406	9.19638
0.4	9.17283
