Name: Garnetiferous Mica Schist
Type: Rock
Class: Metamorphic
Subclass: Schist
Particle Size: Solid surface
Sample No.: Ward84.txt
Owner: JPL
Origin: Ward's Collection of American Rocks.  Sample locality - Gassets, Windsor County, Vermont.  Collected by - JPL.
Description: The hand specimen is a porphyroblastic, schistose rock
Measurement: Hemispherical reflectance
X Units: Wavelength (micrometers)
Y Units: Reflectance (percent)
wavelength	value
15.387	1.8999
15.118	2.8574
14.858	3.2093
14.607	3.1014
14.364	3.3337
14.129	3.4455
13.902	3.9548
13.682	4.2699
13.469	4.3007
13.262	4.3907
13.062	4.0151
12.867	5.023
12.678	5.1616
12.495	5.6819
12.317	4.0547
12.144	4.7536
11.976	5.4311
11.812	6.476
11.653	7.1502
11.498	8.0325
11.347	8.5837
11.2	8.4543
11.056	9.9048
10.917	9.7509
10.781	8.9268
10.648	9.05
10.518	10.5679
10.392	13.3904
10.268	15.4816
10.148	17.1018
10.03	18.6028
9.915	20.2535
9.802	21.5891
9.693	23.2566
9.585	23.4428
9.48	21.8019
9.377	23.4379
9.276	25.4454
9.178	25.4665
9.081	25.0456
8.987	23.6053
8.895	21.1451
8.804	18.0695
8.715	13.6347
8.628	8.6869
8.543	9.812
8.459	9.1128
8.377	8.8182
8.297	8.585
8.218	8.2845
8.14	7.0538
8.065	5.0633
7.99	3.5332
7.917	2.663
7.845	2.1843
7.774	2.0498
7.705	1.9602
7.637	1.9994
7.57	2.2039
7.504	2.0871
7.44	2.326
7.376	2.4371
7.314	2.5269
7.252	2.8456
7.192	2.891
7.133	3.0119
7.074	3.3061
7.017	3.3751
6.96	3.6456
6.905	3.9083
6.85	3.9382
6.796	4.1646
6.743	4.2783
6.691	4.611
6.64	4.7276
6.589	4.8906
6.539	5.254
6.49	5.3321
6.442	5.3931
6.394	5.394
6.347	5.6033
6.301	5.5391
6.255	5.5109
6.21	5.3828
6.166	5.3198
6.122	5.3331
6.079	5.3409
6.037	5.2143
5.995	5.1216
5.954	5.1052
5.913	5.0236
5.873	5.1063
5.833	5.3338
5.794	5.2687
5.755	5.3928
5.717	5.5423
5.68	5.4201
5.643	5.5824
5.606	5.5184
5.57	5.447
5.534	5.5963
5.499	5.6449
5.464	5.8809
5.43	5.955
5.396	6.0769
5.362	6.1425
5.329	6.3969
5.297	6.6882
5.264	7.0939
5.233	7.525
5.201	8.1072
5.17	8.4333
5.139	8.817
5.109	9.1448
5.079	9.3574
5.049	9.3898
5.02	9.4888
4.991	9.4329
4.962	9.544
4.934	9.7049
4.906	9.9865
4.878	10.4621
4.851	11.0059
4.824	11.4765
4.797	11.7905
4.77	12.3375
4.744	12.7799
4.718	13.1349
4.693	13.3198
4.667	13.6813
4.642	14.7242
4.617	15.4304
4.593	16.1421
4.569	16.6445
4.545	16.8761
4.521	16.9505
4.497	16.9758
4.474	17.1277
4.451	18.0714
4.428	18.7
4.406	19.5104
4.383	20.3322
4.361	20.982
4.339	21.5157
4.318	21.6981
4.296	21.668
4.275	21.7867
4.254	22.3648
4.233	22.4132
4.212	22.5716
4.192	22.9895
4.172	23.1463
4.152	23.3428
4.132	23.6628
4.112	24.1085
4.093	24.1494
4.073	24.6516
4.054	24.5964
4.035	24.6582
4.017	24.8327
3.998	24.9026
3.98	25.2136
3.961	25.3228
3.943	25.5059
3.925	25.8315
3.908	25.8679
3.89	25.9825
3.873	25.9194
3.855	25.8611
3.838	25.9362
3.821	26.2432
3.805	26.2666
3.788	26.359
3.771	25.8529
3.755	25.4284
3.739	24.6539
3.723	24.6415
3.707	24.44
3.691	24.9122
3.675	25.363
3.66	25.3841
3.644	25.8398
3.629	26.4577
3.614	26.6028
3.599	26.9712
3.584	26.8524
3.569	27.2098
3.554	26.9663
3.54	27.1574
3.525	27.1795
3.511	26.8862
3.497	26.8794
3.482	27.2929
3.469	27.1218
3.455	26.9803
3.441	27.2183
3.427	26.5426
3.414	26.2751
3.4	26.1971
3.387	25.9842
3.374	26.0086
3.361	25.4828
3.348	25.5746
3.335	25.4501
3.322	25.1513
3.309	25.1492
3.297	25.0852
3.284	24.7428
3.272	24.6069
3.259	24.6287
3.247	24.3545
3.235	24.0448
3.223	23.5121
3.211	23.448
3.199	23.0352
3.187	22.6899
3.175	22.7461
3.164	22.3961
3.152	22.2237
3.141	21.6043
3.129	21.0876
3.118	21.1157
3.107	21.0665
3.096	21.0022
3.085	20.3606
3.074	20.2795
3.063	20.1572
3.052	20.0063
3.041	19.3901
3.031	19.4961
3.02	19.1385
3.01	19.138
2.999	19.2289
2.989	19.1006
2.978	18.756
2.968	18.7557
2.958	18.3895
2.948	18.3501
2.938	17.4007
2.928	17.294
2.918	16.7972
2.908	16.6042
2.898	16.4856
2.889	16.3428
2.879	16.478
2.87	17.076
2.86	16.4374
2.851	16.0079
2.841	15.4618
2.832	15.079
2.823	14.2693
2.814	11.8753
2.805	10.2845
2.795	8.6139
2.786	7.9112
2.777	6.4162
2.769	6.8176
2.76	5.9636
2.751	6.3161
2.742	6.2775
2.733	6.2904
2.725	6.6995
2.716	8.9371
2.708	12.5321
2.699	15.2615
2.691	16.9721
2.683	18.0689
2.674	18.3908
2.666	19.6663
2.658	20.0875
2.65	20.8571
2.642	20.7819
2.634	20.5201
2.626	21.0256
2.618	21.5491
2.61	20.8635
2.602	21.2697
2.594	21.6747
2.586	21.6292
2.579	22.0143
2.571	22.5779
2.563	21.9478
2.556	22.6624
2.548	22.9927
2.541	22.6607
2.533	22.7663
2.526	22.3133
2.518	21.8047
2.511	21.8379
2.504	21.9204
2.497	21.0362
2.489	21.4224
2.482	21.1538
2.475	20.3121
2.468	19.7913
2.461	20.0514
2.454	19.8705
2.447	19.042
2.44	19.2505
2.433	19.0429
2.426	19.7844
2.42	20.2144
2.413	20.6689
2.406	21.4695
2.4	21.3474
2.393	20.9105
2.386	21.2763
2.38	20.9086
2.373	20.6577
2.367	20.6632
2.36	21.6228
2.354	21.0943
2.347	20.541
2.341	20.4078
2.335	21.8815
2.329	22.5382
2.322	22.8196
2.316	23.8365
2.31	24.3859
2.304	25.0268
2.297	26.3156
2.291	26.911
2.285	26.6285
2.279	27.4202
2.273	27.7606
2.267	27.2282
2.261	27.7179
2.256	26.0863
2.25	25.0818
2.244	25.8302
2.238	24.2358
2.232	24.761
2.227	23.1677
2.221	21.9402
2.215	21.8301
2.209	19.9653
2.204	18.8001
2.198	19.3359
2.193	19.9885
2.187	20.8944
2.182	22.3501
2.176	25.0192
2.171	26.6025
2.165	28.9447
2.16	29.8851
2.154	30.6271
2.149	30.121
2.144	31.194
2.138	30.9729
2.133	31.0533
2.128	31.6148
2.123	31.7635
2.117	30.8178
2.112	31.0769
2.107	31.7688
2.102	32.0769
2.097	34.8213
2.092	33.0559
2.087	34.6282
2.082	35.4614
2.077	36.8002
2.072	36.4626
2.067	35.6762
2.062	35.3935
2.057	36.156
2.052	33.7488
2.047	35.1923
2.042	36.395
2.038	36.2338
2.033	37.1697
2.028	35.5787
2.023	36.4398
2.019	36.3962
2.014	35.7285
2.009	35.6395
2.004	34.8837
2	37.1771
