Name: Nontronite Na_0.33Fe_2^3+(Si,Al)_4O_10(OH)_2.H_2O
Type: Mineral
Class: Silicates
Subclass: Phyllosilicates
Particle Size: 0-45um
Sample No.: PS-6A
Owner: JPL
Origin: USA, Pennsylvania.
Measurement: Hemispherical reflectance
X Units: Wavelength (micrometers)
Y Units: Reflectance (percent)
wavelength	value
2.5	37.4145
2.494	37.8285
2.488	38.6212
2.482	39.5413
2.476	40.3821
2.47	41.2799
2.464	42.0351
2.458	42.6858
2.452	43.2775
2.446	43.8298
2.44	44.3657
2.434	44.6996
2.428	45.1871
2.422	45.4554
2.416	45.6641
2.41	45.7644
2.404	45.685
2.398	46.0844
2.392	46.845
2.386	48.0246
2.38	49.4144
2.374	50.7279
2.368	51.9947
2.362	52.9386
2.356	53.78
2.35	54.544
2.344	55.3195
2.338	56.0029
2.332	56.4993
2.326	56.8109
2.32	56.8063
2.314	56.2503
2.308	55.13
2.302	52.8457
2.296	50.1216
2.29	47.7656
2.284	47.2184
2.278	49.041
2.272	52.2596
2.266	56.142
2.26	59.3192
2.254	61.3364
2.248	62.3009
2.242	62.7869
2.236	63.052
2.23	63.3633
2.224	63.4546
2.218	63.1592
2.212	62.1511
2.206	61.2279
2.2	61.7288
2.194	62.8118
2.188	63.6589
2.182	64.2749
2.176	64.5857
2.17	64.8085
2.164	64.9553
2.158	65.2515
2.152	65.5358
2.146	65.8266
2.14	65.9868
2.134	66.0656
2.128	65.8996
2.122	65.6408
2.116	65.3733
2.11	65.0182
2.104	64.7583
2.098	64.3798
2.092	64.2528
2.086	64.0661
2.08	63.8896
2.074	63.6542
2.068	63.3926
2.062	63.0855
2.056	62.7051
2.05	62.32
2.044	61.8236
2.038	61.316
2.032	60.7174
2.026	60.0152
2.02	59.3243
2.014	58.5598
2.008	57.7609
2.002	56.9305
1.996	56.0286
1.99	55.246
1.984	54.3584
1.978	53.5796
1.972	52.8339
1.966	52.2379
1.96	51.6723
1.954	51.0763
1.948	50.6093
1.942	49.87
1.936	49.1593
1.93	48.291
1.924	47.0846
1.918	45.5733
1.912	44.2263
1.906	44.6342
1.9	48.1412
1.894	54.2248
1.888	60.4017
1.882	65.0097
1.876	68.2207
1.87	70.7765
1.864	72.3684
1.858	73.3879
1.852	74.0356
1.846	74.4509
1.84	74.7176
1.834	74.9132
1.828	74.9943
1.822	75.0205
1.816	75.0936
1.81	75.1005
1.804	75.1755
1.798	75.2324
1.792	75.2478
1.786	75.4008
1.78	75.4607
1.774	75.6064
1.768	75.7978
1.762	76.0981
1.756	76.1934
1.75	76.4787
1.744	76.6252
1.738	76.8071
1.732	76.9537
1.726	77.2481
1.72	77.262
1.714	77.3824
1.708	77.3668
1.702	77.503
1.696	77.5136
1.69	77.6607
1.684	77.6782
1.678	77.7928
1.672	77.7823
1.666	77.7918
1.66	77.7882
1.654	77.8235
1.648	77.7948
1.642	77.8635
1.636	77.786
1.63	77.8039
1.624	77.7841
1.618	77.6298
1.612	77.5922
1.606	77.5747
1.6	77.5179
1.594	77.3046
1.588	77.2258
1.582	77.1705
1.576	76.9713
1.57	76.8007
1.564	76.5773
1.558	76.3157
1.552	76.1659
1.546	75.8352
1.54	75.5384
1.534	75.2214
1.528	74.9058
1.522	74.6078
1.516	74.1744
1.51	73.7158
1.504	73.2502
1.498	72.7305
1.492	72.2778
1.486	71.6917
1.48	71.0298
1.474	70.268
1.468	69.5796
1.462	69.3
1.456	69.1244
1.45	68.1302
1.444	64.4227
1.438	60.7882
1.432	61.77
1.426	63.6204
1.42	64.2013
1.414	63.6306
1.408	65.8552
1.402	68.5911
1.396	71.2546
1.39	73.1769
1.384	75.11
1.378	77.4586
1.372	78.8625
1.366	79.5627
1.36	79.872
1.354	80.1024
1.348	80.5852
1.342	80.8545
1.336	81.129
1.33	81.1073
1.324	81.1697
1.318	81.6038
1.312	81.8362
1.306	81.9536
1.3	81.9931
1.294	81.9498
1.288	81.9322
1.282	81.8484
1.276	81.7599
1.27	81.5417
1.264	81.3835
1.258	81.2541
1.252	81.027
1.246	80.6568
1.24	80.4536
1.234	80.2746
1.228	79.9612
1.222	79.6741
1.216	79.4538
1.21	79.0463
1.204	78.6403
1.198	78.1144
1.192	77.6587
1.186	77.2661
1.18	76.7478
1.174	76.1493
1.168	75.5444
1.162	74.9429
1.156	74.343
1.15	73.9289
1.144	73.3846
1.138	72.8871
1.132	72.2924
1.126	71.7494
1.12	71.0502
1.114	70.3422
1.108	69.7554
1.102	68.9918
1.096	68.503
1.09	67.8505
1.084	67.1588
1.078	66.6849
1.072	66.1587
1.066	65.5691
1.06	65.0413
1.054	64.5048
1.048	64.0459
1.042	63.5056
1.036	62.981
1.03	62.5411
1.024	62.0792
1.018	61.739
1.012	61.2844
1.006	60.9252
1	60.4608
0.994	60.1896
0.988	59.8248
0.982	59.4553
0.976	59.2374
0.97	59.0055
0.964	58.8774
0.958	58.7587
0.952	58.6407
0.946	58.4988
0.94	58.4512
0.934	58.4135
0.928	58.4238
0.922	58.4774
0.916	58.4821
0.91	58.6272
0.904	58.6811
0.898	58.7949
0.892	59.0878
0.886	59.1968
0.88	59.4043
0.874	59.5998
0.868	59.8205
0.862	60.1552
0.856	60.9523
0.85	61.5782
0.844	61.9973
0.838	62.4868
0.832	62.9846
0.826	63.4979
0.82	63.9337
0.814	64.421
0.808	64.8092
0.802	64.8385
0.796	65.0186
0.79	65.8598
0.784	66.5177
0.778	66.8088
0.772	67.0219
0.766	67.0104
0.76	66.8928
0.754	66.567
0.748	65.906
0.742	65.2761
0.736	64.9739
0.73	64.5673
0.724	64.1327
0.718	63.4152
0.712	62.6704
0.706	61.9148
0.7	61.1694
0.694	60.4795
0.688	59.807
0.682	59.1651
0.676	58.6046
0.67	58.1048
0.664	57.6259
0.658	57.205
0.652	56.8124
0.646	56.4828
0.64	56.1553
0.634	55.8685
0.628	55.5788
0.622	55.3094
0.616	55.022
0.61	54.7203
0.604	54.3477
0.598	53.8939
0.592	53.3505
0.586	52.5822
0.58	51.5987
0.574	50.4725
0.568	49.4897
0.562	48.1755
0.556	46.6435
0.55	45.0549
0.544	43.4661
0.538	41.8503
0.532	40.2757
0.526	38.7593
0.52	37.3031
0.514	36.0282
0.508	34.791
0.502	33.5974
0.496	32.4829
0.49	31.3926
0.484	30.3628
0.478	29.4477
0.472	28.4812
0.466	27.1932
0.46	24.8506
0.454	21.0938
0.448	18.8978
0.442	19.0967
0.436	19.6909
0.43	19.6638
0.424	19.6198
0.418	19.0757
0.412	17.8866
0.406	16.0629
0.4	13.9294
