Name: Apatite Ca_5(PO_4)_3F
Type: Mineral
Class: Phosphates
Particle Size: 125-500um
Sample No.: P-1A
Owner: JPL
Origin: Canada, Ontario, Lanark County, Perth.
Measurement: Hemispherical reflectance
X Units: Wavelength (micrometers)
Y Units: Reflectance (percent)
wavelength	value
2.5	62.7136
2.494	62.8361
2.488	63.6031
2.482	64.1757
2.476	64.6463
2.47	65.2396
2.464	65.8042
2.458	66.4876
2.452	67.1224
2.446	67.5215
2.44	68.0279
2.434	68.3624
2.428	68.6605
2.422	69.1585
2.416	69.6111
2.41	69.7663
2.404	69.9165
2.398	69.9488
2.392	69.9089
2.386	70.0782
2.38	70.4235
2.374	70.8983
2.368	71.1709
2.362	71.1995
2.356	70.9762
2.35	70.5904
2.344	70.1402
2.338	69.9525
2.332	69.7452
2.326	69.3194
2.32	68.7344
2.314	68.3162
2.308	68.6243
2.302	69.5094
2.296	70.2901
2.29	70.9057
2.284	71.7846
2.278	72.9484
2.272	73.8071
2.266	74.4323
2.26	74.857
2.254	75.1868
2.248	75.4773
2.242	75.7399
2.236	75.7822
2.23	75.8561
2.224	75.9506
2.218	76.1841
2.212	76.4432
2.206	76.6115
2.2	76.7177
2.194	76.6347
2.188	76.4268
2.182	76.1404
2.176	75.9636
2.17	75.6933
2.164	75.4165
2.158	75.3267
2.152	75.5643
2.146	75.9315
2.14	76.5763
2.134	77.1517
2.128	77.3952
2.122	77.4147
2.116	77.315
2.11	77.0852
2.104	76.9032
2.098	76.7482
2.092	76.7651
2.086	76.8102
2.08	76.7498
2.074	76.7631
2.068	76.6129
2.062	76.403
2.056	76.1984
2.05	75.966
2.044	75.7039
2.038	75.2819
2.032	74.8772
2.026	74.1152
2.02	73.1333
2.014	71.9918
2.008	70.3347
2.002	68.2172
1.996	68.1768
1.99	69.937
1.984	70.697
1.978	71.2527
1.972	71.4678
1.966	71.5566
1.96	71.5476
1.954	71.5374
1.948	71.5706
1.942	71.495
1.936	71.3476
1.93	71.3785
1.924	71.0973
1.918	70.9234
1.912	70.7839
1.906	71.0867
1.9	72.4892
1.894	74.3515
1.888	76.0349
1.882	77.0535
1.876	77.6251
1.87	78.0965
1.864	78.5198
1.858	78.9043
1.852	79.4018
1.846	79.5913
1.84	79.8235
1.834	79.957
1.828	80.0299
1.822	80.0929
1.816	80.1253
1.81	80.2389
1.804	80.2725
1.798	80.2701
1.792	80.2497
1.786	80.2779
1.78	80.2942
1.774	80.2584
1.768	80.2701
1.762	80.3002
1.756	80.3284
1.75	80.421
1.744	80.4339
1.738	80.4771
1.732	80.4717
1.726	80.3994
1.72	80.4633
1.714	80.4719
1.708	80.508
1.702	80.4865
1.696	80.4463
1.69	80.4499
1.684	80.4575
1.678	80.3851
1.672	80.3881
1.666	80.3306
1.66	80.3988
1.654	80.2776
1.648	80.2595
1.642	80.2619
1.636	80.0563
1.63	80.0211
1.624	79.9488
1.618	79.882
1.612	79.8256
1.606	79.8021
1.6	79.631
1.594	79.3959
1.588	79.2016
1.582	79.0486
1.576	78.9868
1.57	79.0087
1.564	78.9338
1.558	78.7829
1.552	78.7386
1.546	78.6072
1.54	78.5619
1.534	78.4108
1.528	78.2811
1.522	78.1847
1.516	78.128
1.51	78.0592
1.504	77.9001
1.498	77.7536
1.492	77.6239
1.486	77.7441
1.48	77.598
1.474	77.4977
1.468	77.3526
1.462	77.1654
1.456	76.7891
1.45	76.2162
1.444	76.0589
1.438	75.319
1.432	75.4243
1.426	75.9221
1.42	75.9402
1.414	75.9358
1.408	76.0928
1.402	76.454
1.396	75.5706
1.39	74.355
1.384	77.3362
1.378	77.6793
1.372	77.7424
1.366	77.8667
1.36	77.785
1.354	77.7674
1.348	77.6422
1.342	77.6334
1.336	77.5287
1.33	77.4193
1.324	77.3315
1.318	77.284
1.312	77.1821
1.306	77.0378
1.3	76.8943
1.294	76.7536
1.288	76.6761
1.282	76.5026
1.276	76.3023
1.27	76.1906
1.264	76.0243
1.258	75.8669
1.252	75.6743
1.246	75.5092
1.24	75.2923
1.234	75.1619
1.228	75.0575
1.222	74.9944
1.216	74.8857
1.21	74.7331
1.204	74.5714
1.198	74.3526
1.192	74.1612
1.186	74.0827
1.18	73.9222
1.174	73.7397
1.168	73.5304
1.162	73.3674
1.156	73.1239
1.15	72.9743
1.144	72.8259
1.138	72.6651
1.132	72.4258
1.126	72.2542
1.12	72.0355
1.114	71.7481
1.108	71.5613
1.102	71.3204
1.096	71.1055
1.09	70.9606
1.084	70.6876
1.078	70.4476
1.072	70.2066
1.066	70.0262
1.06	69.8184
1.054	69.5832
1.048	69.3167
1.042	68.9983
1.036	68.8761
1.03	68.4921
1.024	68.2549
1.018	67.9339
1.012	67.6135
1.006	67.3167
1	67.0531
0.994	66.6795
0.988	66.3723
0.982	66.0636
0.976	65.6685
0.97	65.462
0.964	65.0751
0.958	64.7369
0.952	64.3318
0.946	64.0396
0.94	63.6458
0.934	63.3085
0.928	62.9917
0.922	62.5848
0.916	62.2689
0.91	61.9025
0.904	61.5549
0.898	61.1739
0.892	60.797
0.886	60.3879
0.88	60.0752
0.874	59.6908
0.868	59.4149
0.862	59.104
0.856	58.7729
0.85	58.4753
0.844	58.1492
0.838	57.8804
0.832	57.5482
0.826	57.183
0.82	56.6686
0.814	56.1285
0.808	55.2925
0.802	54.9093
0.796	55.3086
0.79	55.407
0.784	55.2937
0.778	55.0446
0.772	54.7697
0.766	54.4495
0.76	54.1235
0.754	53.5713
0.748	53.002
0.742	53.1671
0.736	53.2539
0.73	53.585
0.724	53.5268
0.718	53.4392
0.712	53.3477
0.706	53.2579
0.7	53.2481
0.694	53.1818
0.688	53.1729
0.682	53.2041
0.676	53.3116
0.67	53.4222
0.664	53.5283
0.658	53.6625
0.652	53.8002
0.646	53.9777
0.64	54.1781
0.634	54.4014
0.628	54.6493
0.622	54.9275
0.616	55.211
0.61	55.4736
0.604	55.673
0.598	55.8734
0.592	55.8644
0.586	55.6926
0.58	55.9816
0.574	56.6375
0.568	57.9962
0.562	58.4281
0.556	58.7428
0.55	59.0281
0.544	59.2426
0.538	59.3717
0.532	59.235
0.526	59.1609
0.52	59.4098
0.514	59.3051
0.508	59.2701
0.502	59.0949
0.496	58.8105
0.49	58.3019
0.484	57.5915
0.478	57.0826
0.472	56.4129
0.466	55.8107
0.46	54.9949
0.454	54.027
0.448	52.7245
0.442	51.2132
0.436	49.5089
0.43	47.4069
0.424	45.1527
0.418	42.6536
0.412	40.031
0.406	37.298
0.4	34.4519
