Name: Cryolite Na_3AlF_6
Type: Mineral
Class: Halides
Particle Size: 0-45um
Sample No.: H-1A
Owner: JPL
Origin: Denmark, Greenland, Ivigtut
Measurement: Hemispherical reflectance
X Units: Wavelength (micrometers)
Y Units: Reflectance (percent)
wavelength	value
15.385	11.6493
15.116	14.2482
14.856	15.1042
14.605	13.7619
14.362	10.9656
14.128	8.2692
13.9	5.953
13.68	4.2625
13.467	3.0447
13.26	2.0358
13.06	1.0931
12.866	0.4898
12.677	0.1488
12.494	0
12.316	0.2214
12.143	0.3471
11.974	0.76
11.811	1.2001
11.651	1.6622
11.496	2.3692
11.345	3.0941
11.198	3.3309
11.055	3.4535
10.915	3.5422
10.779	3.6865
10.647	3.6569
10.517	2.9164
10.39	2.1591
10.267	1.9681
10.146	2.2752
10.029	2.8457
9.914	3.8455
9.801	4.981
9.691	6.6039
9.584	8.1086
9.479	9.0075
9.376	10.0048
9.275	13.9501
9.177	19.9215
9.08	25.76
8.986	27.6313
8.893	23.517
8.803	21.3948
8.714	23.3997
8.627	28.2574
8.542	33.6939
8.458	36.0554
8.376	37.8435
8.296	39.1247
8.217	41.5978
8.139	46.8184
8.063	52.6959
7.989	56.5841
7.916	59.023
7.844	60.4673
7.773	61.011
7.704	61.623
7.636	61.5394
7.569	62.0461
7.503	62.8479
7.439	62.7149
7.375	62.0179
7.313	61.4024
7.252	60.8544
7.191	60.5696
7.132	59.7931
7.073	57.9425
7.016	56.8815
6.96	56.8963
6.904	55.2191
6.849	55.9429
6.795	57.9258
6.742	58.7234
6.69	61.5422
6.639	67.0171
6.588	68.043
6.538	69.5099
6.489	74.4613
6.441	72.2317
6.393	70.9518
6.346	70.7166
6.3	68.2349
6.254	67.5389
6.209	67.1589
6.165	68.267
6.121	68.1608
6.078	67.4183
6.036	64.9291
5.994	65.8581
5.953	70.4453
5.912	74.5592
5.872	77.615
5.832	79.5065
5.793	80.7587
5.755	83.1318
5.716	84.7753
5.679	84.8239
5.642	86.2188
5.605	85.1715
5.569	85.0484
5.533	85.0831
5.498	85.9628
5.463	87.2281
5.429	87.2547
5.395	86.9139
5.362	87.2329
5.329	87.0456
5.296	87.2775
5.264	87.0219
5.232	86.9646
5.2	86.7362
5.169	86.4215
5.139	86.5069
5.108	86.7205
5.078	86.9063
5.049	86.9303
5.019	87.0274
4.99	87.0372
4.962	87.1039
4.933	87.2532
4.905	87.3563
4.878	87.2945
4.85	87.3978
4.823	87.6152
4.796	87.828
4.77	87.9756
4.744	88.0529
4.718	87.9912
4.692	87.772
4.667	87.345
4.642	86.9993
4.617	87.0105
4.592	87.4442
4.568	88.0987
4.544	88.5992
4.52	88.9939
4.497	89.2392
4.474	89.3857
4.45	89.4931
4.428	89.5252
4.405	89.6088
4.383	89.7487
4.361	89.9149
4.339	90.0313
4.317	90.1401
4.296	90.2745
4.274	89.4857
4.253	89.6814
4.233	90.8195
4.212	90.7224
4.191	90.596
4.171	90.8454
4.151	90.9979
4.131	91.1035
4.112	91.1087
4.092	91.1359
4.073	91.0244
4.054	90.8623
4.035	90.6299
4.016	90.1917
3.998	90.2963
3.979	90.5129
3.961	90.6458
3.943	90.9861
3.925	90.9665
3.907	91.1379
3.89	91.1161
3.872	91.2301
3.855	91.2219
3.838	91.1774
3.821	91.2354
3.804	91.2876
3.787	91.3896
3.771	91.3273
3.754	91.3018
3.738	91.2489
3.722	91.1126
3.706	90.9025
3.69	90.8642
3.675	90.7985
3.659	90.6718
3.644	90.5379
3.628	90.3635
3.613	90.2484
3.598	90.0726
3.583	89.6851
3.568	89.1826
3.554	88.9312
3.539	88.6661
3.525	88.1932
3.51	86.7855
3.496	86.2237
3.482	86.428
3.468	86.295
3.454	86.1282
3.441	85.4957
3.427	84.141
3.413	83.3021
3.4	83.9873
3.387	84.4826
3.373	83.9245
3.36	84.3372
3.347	84.603
3.334	84.7667
3.321	84.784
3.309	84.4779
3.296	84.2321
3.284	83.7794
3.271	83.4905
3.259	83.0661
3.247	82.5708
3.234	82.1968
3.222	81.7216
3.21	81.2085
3.199	80.6625
3.187	80.119
3.175	79.5929
3.163	79.0305
3.152	78.33
3.14	77.9064
3.129	77.1331
3.118	76.5575
3.107	75.9062
3.095	75.5306
3.084	75.2001
3.073	74.7317
3.063	74.252
3.052	73.7995
3.041	73.1105
3.03	72.4811
3.02	71.8322
3.009	71.329
2.999	70.9041
2.988	70.5118
2.978	69.9613
2.968	69.442
2.958	69.1319
2.948	68.7063
2.938	67.9618
2.928	66.9032
2.918	65.9932
2.908	65.1005
2.898	64.7427
2.888	64.7743
2.879	65.5451
2.869	66.3641
2.86	66.8013
2.85	66.3839
2.841	65.083
2.832	65.1308
2.822	66.1889
2.813	67.2052
2.804	68.9743
2.795	69.7557
2.786	72.5033
2.777	73.564
2.768	75.0564
2.759	76.4121
2.751	78.0465
2.742	81.0281
2.733	81.5059
2.725	84.7065
2.716	84.2916
2.707	85.3011
2.699	85.6718
2.691	86.9852
2.682	88.4197
2.674	89.5753
2.666	92.5089
2.658	90.1962
2.649	90.2849
2.641	90.9131
2.633	91.6223
2.625	91.7691
2.617	93.0147
2.609	91.9961
2.602	92.0135
2.594	94.3784
2.586	92.5718
2.578	92.3564
2.571	92.9004
2.563	93.5824
2.555	92.3466
2.548	92.6536
2.54	92.409
2.533	92.7177
2.525	92.5758
2.518	92.498
2.511	92.5656
2.504	92.4208
2.496	92.4527
2.489	92.165
2.482	91.7527
2.475	91.5095
2.468	91.3509
2.461	91.7355
2.454	91.9669
2.447	92.0681
2.44	92.1332
2.433	92.2158
2.426	92.2776
2.419	92.1779
2.413	91.9736
2.406	91.918
2.399	92.0528
2.393	92.2725
2.386	92.3348
2.379	92.6411
2.373	92.7384
2.366	92.9595
2.36	93.0627
2.354	93.2864
2.347	93.3574
2.341	93.7815
2.334	94.0565
2.328	94.3204
2.322	94.6586
2.316	94.7008
2.309	94.4809
2.303	94.5406
2.297	94.6141
2.291	94.8574
2.285	94.8585
2.279	95.0208
2.273	95.132
2.267	95.0382
2.261	94.9697
2.255	95.1224
2.249	95.0453
2.244	94.9428
2.238	94.7944
2.232	94.8812
2.226	95.0182
2.22	94.9181
2.215	95.0813
2.209	94.9591
2.204	95.2077
2.198	95.0592
2.192	95.3037
2.187	95.0349
2.181	95.1255
2.176	94.9886
2.17	95.039
2.165	95.1538
2.159	95.0938
2.154	95.1731
2.149	95.2295
2.143	95.2058
2.138	95.1826
2.133	95.356
2.128	95.2307
2.122	95.3474
2.117	95.4219
2.112	95.1667
2.107	95.3217
2.102	95.2887
2.097	95.1823
2.091	95.3408
2.086	95.3201
2.081	95.3606
2.076	95.0853
2.071	95.7054
2.066	95.2087
2.062	95.3065
2.057	95.1949
2.052	95.1551
2.047	95.0909
2.042	95.3398
2.037	95.149
2.032	94.9848
2.028	95.2243
2.023	95.1017
2.018	95.2109
2.014	95.3284
2.009	95.1207
2.004	95.2612
