Name: Calcite CaCO_3
Type: Mineral
Class: Carbonates
Particle Size: 0-45um
Sample No.: C-3A
Owner: JPL
Wavelength Range: VNIR-SWIR
Origin: Italy
Description: Travertine
Measurement: Hemispherical reflectance
X Units: Wavelength (micrometers)
Y Units: Reflectance (percent)
wavelength	value
0.4	67.95
0.403	68.58
0.406	68.92
0.409	69.26
0.412	69.72
0.415	69.78
0.418	70.46
0.421	70.35
0.424	70.87
0.427	71.33
0.43	71.38
0.433	71.84
0.436	72.07
0.439	72.58
0.442	72.41
0.445	73.04
0.448	72.93
0.451	73.27
0.454	73.56
0.457	73.74
0.46	74.14
0.463	74.26
0.466	74.55
0.469	74.61
0.472	74.84
0.475	75.14
0.478	74.98
0.481	75.48
0.484	75.32
0.487	75.96
0.49	75.85
0.493	76.31
0.496	76.31
0.499	76.49
0.502	76.72
0.505	76.67
0.508	77.29
0.511	77.17
0.514	77.69
0.517	77.69
0.52	78.04
0.523	78.04
0.526	78.21
0.529	78.44
0.532	78.15
0.535	78.67
0.538	78.38
0.541	78.89
0.544	78.84
0.547	79.18
0.55	79.24
0.553	79.53
0.556	79.81
0.559	79.47
0.562	79.99
0.565	80.1
0.568	80.22
0.571	79.99
0.574	80.33
0.577	80.16
0.58	80.5
0.583	80.38
0.586	80.33
0.589	80.84
0.592	80.5
0.595	81.07
0.598	80.9
0.601	81.19
0.604	81.36
0.607	81.19
0.61	81.36
0.613	81.24
0.616	81.53
0.619	81.36
0.622	81.36
0.625	81.65
0.628	81.53
0.631	81.88
0.634	81.59
0.637	81.88
0.64	81.82
0.643	81.82
0.646	82.16
0.649	81.82
0.652	82.27
0.655	82.1
0.658	82.33
0.661	82.21
0.664	82.33
0.667	82.5
0.67	82.39
0.673	82.91
0.676	82.5
0.679	82.79
0.682	82.67
0.685	82.62
0.688	83.14
0.691	82.85
0.694	83.02
0.697	83.08
0.7	83.02
0.703	82.91
0.706	83.08
0.709	83.02
0.712	83.37
0.715	82.96
0.718	83.48
0.721	83.37
0.724	83.42
0.727	83.7
0.73	83.31
0.733	83.76
0.736	83.37
0.739	83.76
0.742	83.87
0.745	83.6
0.748	83.93
0.751	83.65
0.754	83.82
0.757	83.93
0.76	83.87
0.763	84.1
0.766	83.82
0.769	84.16
0.772	83.87
0.775	84.16
0.778	83.87
0.781	84.22
0.784	84.28
0.787	84.05
0.79	84.39
0.793	84.22
0.796	84.68
0.799	84.28
0.808	84.45
0.82	84.51
0.832	84.68
0.844	84.62
0.856	84.74
0.868	84.57
0.88	84.57
0.892	84.51
0.904	84.62
0.916	84.62
0.928	84.57
0.94	84.62
0.952	84.62
0.964	84.62
0.976	84.57
0.988	84.74
1	84.68
1.012	84.74
1.024	84.62
1.036	84.68
1.048	84.74
1.06	84.51
1.072	84.68
1.084	84.68
1.096	84.68
1.108	84.62
1.12	84.68
1.132	84.8
1.144	84.57
1.156	84.73
1.168	84.64
1.18	84.75
1.192	84.61
1.204	84.76
1.216	84.76
1.228	84.48
1.24	84.59
1.252	84.59
1.264	84.69
1.276	84.61
1.288	84.81
1.3	84.68
1.312	84.66
1.324	84.58
1.336	84.62
1.348	84.48
1.36	84.54
1.372	84.48
1.384	84.48
1.396	84.36
1.408	84.33
1.42	84.17
1.432	84.14
1.444	84.27
1.456	84.05
1.468	84.17
1.48	84.22
1.492	84.45
1.504	84.4
1.516	84.51
1.528	84.57
1.54	84.57
1.552	84.57
1.564	84.63
1.576	84.63
1.588	84.63
1.6	84.68
1.612	84.66
1.624	84.53
1.636	84.57
1.648	84.59
1.66	84.57
1.672	84.56
1.684	84.48
1.696	84.47
1.708	84.4
1.72	84.46
1.732	84.28
1.744	84.34
1.756	84.23
1.768	84.28
1.78	84.4
1.792	84.34
1.804	84.37
1.816	84.23
1.828	84.04
1.84	83.84
1.852	83.54
1.864	83.23
1.876	82.76
1.888	82.74
1.9	82.33
1.912	82.02
1.924	81.55
1.936	81.47
1.948	81.45
1.96	81.29
1.972	81.56
1.984	81.56
1.996	81.84
2.008	82.02
2.02	82.52
2.032	82.96
2.044	82.99
2.056	83.23
2.068	83.24
2.08	83.3
2.092	83.42
2.104	83.49
2.116	83.5
2.128	83.49
2.14	83.23
2.152	82.97
2.164	82.82
2.176	83.01
2.188	82.92
2.2	82.84
2.212	82.51
2.224	82.19
2.236	81.52
2.248	80.81
2.26	79.94
2.272	78.69
2.284	77.41
2.296	76.26
2.308	75.24
2.32	73.97
2.332	73.06
2.344	73.75
2.356	75.77
2.368	78.34
2.38	80.09
2.392	80.46
2.404	80.56
2.416	80.1
2.428	79.35
2.44	78.12
2.452	76.5
2.464	74.43
2.476	72.31
2.488	70.52
2.5	68.74
