Name: Glaucophane Na_2(Mg,Fe^2+)_3Al_2Si_8O_22(OH)_2
Type: Mineral
Class: Silicates
Subclass: Inosilicates
Particle Size: 125-500um
Sample No.: IN-3A
Owner: JPL
Origin: USA, California.
Measurement: Hemispherical reflectance
X Units: Wavelength (micrometers)
Y Units: Reflectance (percent)
wavelength	value
2.5	20.6098
2.494	20.4343
2.488	20.9003
2.482	21.1677
2.476	21.2656
2.47	21.4231
2.464	21.8344
2.458	22.3658
2.452	22.7753
2.446	23.1638
2.44	23.6251
2.434	23.8041
2.428	23.7598
2.422	23.6238
2.416	23.2687
2.41	22.694
2.404	22.0642
2.398	21.5973
2.392	21.0175
2.386	20.6589
2.38	20.627
2.374	20.5935
2.368	20.5285
2.362	20.1774
2.356	19.5691
2.35	18.6606
2.344	17.5304
2.338	16.4798
2.332	15.4411
2.326	14.8227
2.32	14.4686
2.314	14.5484
2.308	15.0069
2.302	16.0462
2.296	17.546
2.29	19.0958
2.284	20.5597
2.278	21.7273
2.272	22.6599
2.266	23.3768
2.26	23.7634
2.254	24.3355
2.248	25.3315
2.242	26.5823
2.236	28.0034
2.23	29.325
2.224	30.3468
2.218	31.1873
2.212	31.8917
2.206	32.1842
2.2	32.4995
2.194	32.8611
2.188	33.2378
2.182	33.5309
2.176	33.8007
2.17	34.2318
2.164	34.6682
2.158	35.1751
2.152	35.7428
2.146	36.1652
2.14	36.4612
2.134	36.5869
2.128	36.6119
2.122	36.6276
2.116	36.7364
2.11	36.8321
2.104	36.9375
2.098	37.0658
2.092	37.2031
2.086	37.3217
2.08	37.2572
2.074	37.2661
2.068	37.1812
2.062	37.1193
2.056	36.9501
2.05	36.8216
2.044	36.7343
2.038	36.6128
2.032	36.4108
2.026	36.2008
2.02	35.9325
2.014	35.6987
2.008	35.5832
2.002	35.4605
1.996	35.4149
1.99	35.3136
1.984	35.2402
1.978	35.0365
1.972	34.8106
1.966	34.6389
1.96	34.4315
1.954	34.1281
1.948	33.9363
1.942	33.8654
1.936	33.875
1.93	34.0633
1.924	34.2236
1.918	34.5388
1.912	34.8324
1.906	35.1963
1.9	35.4626
1.894	35.6923
1.888	35.9551
1.882	36.2485
1.876	36.4246
1.87	36.4471
1.864	36.5737
1.858	36.5815
1.852	36.6245
1.846	36.5057
1.84	36.4474
1.834	36.312
1.828	36.3015
1.822	36.2292
1.816	36.206
1.81	36.143
1.804	36.0318
1.798	35.9095
1.792	35.7734
1.786	35.6493
1.78	35.4353
1.774	35.3117
1.768	35.1916
1.762	35.0504
1.756	34.8794
1.75	34.7532
1.744	34.6145
1.738	34.4898
1.732	34.2962
1.726	34.1885
1.72	34.0324
1.714	33.873
1.708	33.6427
1.702	33.5015
1.696	33.3666
1.69	33.1983
1.684	33.043
1.678	32.9532
1.672	32.8134
1.666	32.7461
1.66	32.5077
1.654	32.468
1.648	32.2525
1.642	32.2647
1.636	32.0303
1.63	31.9095
1.624	31.7407
1.618	31.5667
1.612	31.4445
1.606	31.177
1.6	31.1331
1.594	30.8935
1.588	30.72
1.582	30.4991
1.576	30.2619
1.57	30.0155
1.564	29.7831
1.558	29.5518
1.552	29.3603
1.546	29.1416
1.54	28.9532
1.534	28.7987
1.528	28.6286
1.522	28.4189
1.516	28.2189
1.51	28.0969
1.504	27.8701
1.498	27.7841
1.492	27.5538
1.486	27.3421
1.48	27.1106
1.474	26.8412
1.468	26.5713
1.462	26.3882
1.456	26.3163
1.45	26.1439
1.444	25.9998
1.438	25.9823
1.432	25.8971
1.426	25.7165
1.42	25.2387
1.414	23.4196
1.408	20.2521
1.402	20.1191
1.396	22.5718
1.39	24.7816
1.384	24.9108
1.378	24.8986
1.372	24.8146
1.366	24.5366
1.36	24.3504
1.354	24.1451
1.348	23.8397
1.342	23.6897
1.336	23.4326
1.33	23.2049
1.324	23.0251
1.318	22.7736
1.312	22.5725
1.306	22.2636
1.3	22.0091
1.294	21.7505
1.288	21.4954
1.282	21.2042
1.276	21.0399
1.27	20.7889
1.264	20.486
1.258	20.1843
1.252	19.9325
1.246	19.6741
1.24	19.3836
1.234	19.1027
1.228	18.77
1.222	18.5147
1.216	18.2401
1.21	17.9032
1.204	17.6357
1.198	17.3081
1.192	17.0034
1.186	16.7729
1.18	16.4622
1.174	16.1177
1.168	15.7898
1.162	15.5636
1.156	15.2976
1.15	14.985
1.144	14.6777
1.138	14.3382
1.132	14.1286
1.126	13.9181
1.12	13.6411
1.114	13.3834
1.108	13.1529
1.102	12.9372
1.096	12.7464
1.09	12.5979
1.084	12.4185
1.078	12.285
1.072	12.1192
1.066	11.8326
1.06	11.7044
1.054	11.5749
1.048	11.4874
1.042	11.3833
1.036	11.3275
1.03	11.1931
1.024	11.0924
1.018	10.9847
1.012	10.9705
1.006	10.8781
1	10.815
0.994	10.8106
0.988	10.7768
0.982	10.6955
0.976	10.6419
0.97	10.5804
0.964	10.5525
0.958	10.4663
0.952	10.3919
0.946	10.3277
0.94	10.2705
0.934	10.2034
0.928	10.077
0.922	9.92887
0.916	9.92644
0.91	9.79924
0.904	9.78136
0.898	9.60607
0.892	9.47594
0.886	9.41337
0.88	9.30248
0.874	9.2769
0.868	9.14132
0.862	9.108
0.856	9.26052
0.85	9.23664
0.844	9.22694
0.838	9.1999
0.832	9.18971
0.826	9.17703
0.82	9.18178
0.814	9.18342
0.808	9.17564
0.802	9.19694
0.796	9.17676
0.79	9.16586
0.784	9.13711
0.778	9.12636
0.772	9.0868
0.766	9.0332
0.76	8.98787
0.754	8.91285
0.748	8.84092
0.742	8.76288
0.736	8.68482
0.73	8.60257
0.724	8.52357
0.718	8.43665
0.712	8.35944
0.706	8.29292
0.7	8.23944
0.694	8.18909
0.688	8.14711
0.682	8.12409
0.676	8.09863
0.67	8.07899
0.664	8.07387
0.658	8.07481
0.652	8.08408
0.646	8.10619
0.64	8.13054
0.634	8.16582
0.628	8.20777
0.622	8.25739
0.616	8.31335
0.61	8.36892
0.604	8.42548
0.598	8.48687
0.592	8.55403
0.586	8.60763
0.58	8.64345
0.574	8.68834
0.568	8.73382
0.562	8.775
0.556	8.79735
0.55	8.82824
0.544	8.85925
0.538	8.8828
0.532	8.90871
0.526	8.93323
0.52	8.95952
0.514	8.99137
0.508	9.00058
0.502	9.0021
0.496	8.96241
0.49	8.92552
0.484	8.8854
0.478	8.84024
0.472	8.80523
0.466	8.81017
0.46	8.78763
0.454	8.65514
0.448	8.61117
0.442	8.41756
0.436	8.23246
0.43	8.15939
0.424	7.94539
0.418	7.71089
0.412	7.45876
0.406	7.20099
0.4	7.00057
