Name: Cordierite Mg_2Al_3(Si_5Al)O_18
Type: Mineral
Class: Silicates
Subclass: Cyclosilicates
Particle Size: 45-125um
Sample No.: CS-3A
Owner: JPL
Origin: Canada, Northwest Territories, Mackenzie District, Great Bear Lake.
Measurement: Hemispherical reflectance
X Units: Wavelength (micrometers)
Y Units: Reflectance (percent)
wavelength	value
2.5	52.0687
2.494	53.0942
2.488	54.3824
2.482	55.4547
2.476	56.432
2.47	57.4593
2.464	58.3202
2.458	59.1775
2.452	59.9519
2.446	60.6644
2.44	61.3983
2.434	61.8071
2.428	62.4614
2.422	62.8594
2.416	63.3486
2.41	63.6858
2.404	64.0793
2.398	64.3251
2.392	64.5587
2.386	64.7946
2.38	65.036
2.374	65.1656
2.368	65.345
2.362	65.465
2.356	65.5794
2.35	65.6302
2.344	65.766
2.338	65.8803
2.332	65.9173
2.326	65.9919
2.32	65.9531
2.314	66.0367
2.308	66.0972
2.302	66.1066
2.296	66.067
2.29	66.0561
2.284	66.0226
2.278	65.9811
2.272	65.9233
2.266	65.8081
2.26	65.7153
2.254	65.6365
2.248	65.8189
2.242	65.8827
2.236	66.1605
2.23	66.2486
2.224	66.3895
2.218	66.3262
2.212	66.2682
2.206	66.2558
2.2	66.5344
2.194	66.7191
2.188	66.953
2.182	67.1228
2.176	67.3948
2.17	67.631
2.164	68.0895
2.158	68.4649
2.152	68.9271
2.146	69.2489
2.14	69.4382
2.134	69.4293
2.128	69.4129
2.122	69.2118
2.116	69.0363
2.11	68.6966
2.104	68.4395
2.098	68.2505
2.092	68.3962
2.086	68.5301
2.08	68.5279
2.074	68.9164
2.068	69.3897
2.062	69.5946
2.056	69.7394
2.05	69.8195
2.044	69.9746
2.038	70.0056
2.032	69.9011
2.026	69.7713
2.02	69.1282
2.014	68.1466
2.008	68.9753
2.002	69.1206
1.996	68.5649
1.99	67.9877
1.984	67.3859
1.978	66.9733
1.972	65.9886
1.966	65.2824
1.96	65.6685
1.954	65.5143
1.948	65.4421
1.942	65.2452
1.936	65.0014
1.93	64.5127
1.924	63.8962
1.918	62.2393
1.912	57.8251
1.906	48.5348
1.9	37.3573
1.894	46.2848
1.888	60.3802
1.882	64.9765
1.876	66.4807
1.87	66.7571
1.864	66.6144
1.858	66.3114
1.852	65.8479
1.846	65.7536
1.84	65.8558
1.834	65.9237
1.828	66.434
1.822	66.9093
1.816	67.9522
1.81	69.3061
1.804	70.5422
1.798	71.2959
1.792	71.6711
1.786	72.1491
1.78	72.4919
1.774	72.7764
1.768	73.0958
1.762	73.3113
1.756	73.4395
1.75	73.6008
1.744	73.6524
1.738	73.6747
1.732	73.8372
1.726	73.7958
1.72	73.8444
1.714	73.819
1.708	73.8114
1.702	73.671
1.696	73.6837
1.69	73.6356
1.684	73.6488
1.678	73.5591
1.672	73.5163
1.666	73.503
1.66	73.5099
1.654	73.392
1.648	73.2752
1.642	73.3419
1.636	73.2317
1.63	73.1258
1.624	73.0733
1.618	72.9821
1.612	72.8984
1.606	72.7081
1.6	72.6578
1.594	72.5226
1.588	72.3424
1.582	72.1687
1.576	71.9912
1.57	71.774
1.564	71.5337
1.558	71.3516
1.552	71.0242
1.546	70.8159
1.54	70.541
1.534	70.1901
1.528	69.8163
1.522	69.4324
1.516	69.0624
1.51	68.5435
1.504	68.1496
1.498	67.5871
1.492	67.0891
1.486	66.5318
1.48	65.8868
1.474	64.6795
1.468	62.0738
1.462	63.3615
1.456	63.0381
1.45	62.2123
1.444	61.2791
1.438	60.3306
1.432	59.2171
1.426	57.8023
1.42	56.0269
1.414	54.58
1.408	49.7858
1.402	47.2761
1.396	53.6019
1.39	53.7594
1.384	53.2108
1.378	52.3178
1.372	51.4835
1.366	50.6862
1.36	49.8366
1.354	49.363
1.348	48.6219
1.342	47.8414
1.336	46.9445
1.33	46.0984
1.324	45.1825
1.318	44.4001
1.312	43.5276
1.306	42.733
1.3	41.7793
1.294	41.0853
1.288	40.3
1.282	39.6015
1.276	38.9683
1.27	38.2626
1.264	37.6414
1.258	37.1343
1.252	36.5547
1.246	36.0492
1.24	35.6022
1.234	35.1634
1.228	34.7512
1.222	34.3874
1.216	34.0369
1.21	33.7373
1.204	33.5302
1.198	33.3008
1.192	33.0752
1.186	32.927
1.18	32.7303
1.174	32.6369
1.168	32.5222
1.162	32.3953
1.156	32.17
1.15	32.0895
1.144	32.1642
1.138	32.1083
1.132	31.9626
1.126	31.8939
1.12	31.7373
1.114	31.6766
1.108	31.4992
1.102	31.2496
1.096	31.059
1.09	30.8506
1.084	30.4827
1.078	30.2103
1.072	29.8574
1.066	29.5077
1.06	29.1159
1.054	28.6988
1.048	28.3189
1.042	27.9425
1.036	27.6293
1.03	27.1834
1.024	26.8469
1.018	26.5801
1.012	26.256
1.006	26.0658
1	25.8733
0.994	25.7115
0.988	25.6506
0.982	25.6439
0.976	25.6682
0.97	25.7943
0.964	25.9399
0.958	26.0526
0.952	26.4334
0.946	26.7756
0.94	27.1607
0.934	27.5605
0.928	28.0368
0.922	28.6277
0.916	29.2735
0.91	29.9656
0.904	30.6923
0.898	31.4581
0.892	32.295
0.886	33.2009
0.88	34.1464
0.874	35.0779
0.868	36.1364
0.862	37.1032
0.856	38.3804
0.85	39.5424
0.844	40.6976
0.838	41.7297
0.832	42.8625
0.826	43.9797
0.82	45.0668
0.814	46.1135
0.808	47.1407
0.802	48.0789
0.796	48.9031
0.79	49.6566
0.784	50.2731
0.778	50.8645
0.772	51.3039
0.766	51.6456
0.76	51.8444
0.754	51.9836
0.748	51.97
0.742	51.8692
0.736	51.7047
0.73	51.464
0.724	51.1532
0.718	50.8108
0.712	50.4134
0.706	49.9977
0.7	49.5654
0.694	49.125
0.688	48.6572
0.682	48.1856
0.676	47.6969
0.67	47.2398
0.664	46.7801
0.658	46.3704
0.652	46.0075
0.646	45.7097
0.64	45.421
0.634	45.1723
0.628	44.9481
0.622	44.7308
0.616	44.5098
0.61	44.2945
0.604	44.0701
0.598	43.8652
0.592	43.7299
0.586	43.5875
0.58	43.4907
0.574	43.4391
0.568	43.4079
0.562	43.3977
0.556	43.3565
0.55	43.3758
0.544	43.3916
0.538	43.436
0.532	43.529
0.526	43.6071
0.52	43.6883
0.514	43.7508
0.508	43.8556
0.502	43.894
0.496	43.7883
0.49	43.79
0.484	44.0445
0.478	44.306
0.472	44.5641
0.466	44.8492
0.46	44.974
0.454	45.0959
0.448	45.069
0.442	44.6568
0.436	44.4236
0.43	44.1755
0.424	43.5692
0.418	43.2463
0.412	43.2487
0.406	43.1119
0.4	42.6314
