Name: Almandine Garnet Fe_3Al_2(SiO_4)_3
Type: Mineral
Class: Silicates
Subclass: Nesosilicates
Particle Size: 125-500um
Sample No.: NS-4A
Owner: JPL
Origin: USA, Arizona, Graham County, Stanley Butte.
Measurement: Hemispherical reflectance
X Units: Wavelength (micrometers)
Y Units: Reflectance (percent)
wavelength	value
2.5	15.7438
2.494	15.448
2.488	15.1097
2.482	15.0844
2.476	14.8918
2.47	14.7291
2.464	14.5324
2.458	14.5216
2.452	14.4379
2.446	14.2861
2.44	14.1487
2.434	14.1925
2.428	14.0215
2.422	13.8973
2.416	13.7616
2.41	13.7478
2.404	13.6042
2.398	13.5279
2.392	13.4707
2.386	13.4298
2.38	13.3718
2.374	13.3408
2.368	13.2463
2.362	13.2071
2.356	13.1079
2.35	13.0916
2.344	13.0907
2.338	13.0129
2.332	12.9707
2.326	12.9139
2.32	12.8846
2.314	12.8704
2.308	12.8825
2.302	12.9053
2.296	12.8594
2.29	12.8297
2.284	12.7754
2.278	12.8381
2.272	12.8086
2.266	12.8289
2.26	12.8396
2.254	12.8317
2.248	12.8681
2.242	12.8276
2.236	12.909
2.23	12.9747
2.224	12.9961
2.218	13.0663
2.212	13.1855
2.206	13.1952
2.2	13.212
2.194	13.3102
2.188	13.3756
2.182	13.4602
2.176	13.4941
2.17	13.5576
2.164	13.7043
2.158	13.7995
2.152	13.8491
2.146	13.9089
2.14	13.9999
2.134	14.048
2.128	14.0972
2.122	14.0762
2.116	14.1722
2.11	14.1731
2.104	14.2218
2.098	14.2663
2.092	14.392
2.086	14.3943
2.08	14.4926
2.074	14.529
2.068	14.664
2.062	14.6745
2.056	14.7497
2.05	14.8249
2.044	14.8638
2.038	14.9211
2.032	15.0193
2.026	15.0681
2.02	15.0876
2.014	15.135
2.008	15.1786
2.002	15.1972
1.996	15.2428
1.99	15.2204
1.984	15.214
1.978	15.2681
1.972	15.2684
1.966	15.342
1.96	15.296
1.954	15.2123
1.948	15.2237
1.942	15.2288
1.936	15.2566
1.93	15.1361
1.924	15.2004
1.918	15.1066
1.912	14.9813
1.906	14.9843
1.9	15.0011
1.894	14.9148
1.888	14.7806
1.882	14.7082
1.876	14.619
1.87	14.4727
1.864	14.4059
1.858	14.2827
1.852	14.1997
1.846	14.0449
1.84	14.0305
1.834	13.8739
1.828	13.7528
1.822	13.6342
1.816	13.4666
1.81	13.3572
1.804	13.2125
1.798	13.1072
1.792	12.9518
1.786	12.9053
1.78	12.7506
1.774	12.6137
1.768	12.5334
1.762	12.4842
1.756	12.3506
1.75	12.2481
1.744	12.1715
1.738	12.0611
1.732	11.9972
1.726	11.9086
1.72	11.8861
1.714	11.8515
1.708	11.812
1.702	11.7306
1.696	11.6123
1.69	11.6327
1.684	11.6304
1.678	11.6175
1.672	11.6014
1.666	11.5508
1.66	11.6622
1.654	11.6391
1.648	11.6251
1.642	11.7056
1.636	11.7364
1.63	11.7036
1.624	11.8185
1.618	11.9451
1.612	11.9547
1.606	11.9563
1.6	12.0675
1.594	12.1732
1.588	12.2322
1.582	12.3267
1.576	12.4598
1.57	12.5174
1.564	12.5737
1.558	12.6362
1.552	12.6542
1.546	12.776
1.54	12.8131
1.534	12.8419
1.528	12.9502
1.522	13.0057
1.516	12.9478
1.51	13.0157
1.504	13.0056
1.498	13.002
1.492	12.9759
1.486	12.8994
1.48	12.8714
1.474	12.7738
1.468	12.6341
1.462	12.508
1.456	12.4014
1.45	12.1616
1.444	11.9785
1.438	11.8148
1.432	11.626
1.426	11.359
1.42	11.1201
1.414	10.8777
1.408	10.7194
1.402	10.4424
1.396	10.2957
1.39	10.0701
1.384	9.8538
1.378	9.59844
1.372	9.3819
1.366	9.21991
1.36	9.01932
1.354	8.77774
1.348	8.62219
1.342	8.46692
1.336	8.29028
1.33	8.15465
1.324	8.03707
1.318	8.02181
1.312	7.92602
1.306	7.85464
1.3	7.80658
1.294	7.73341
1.288	7.78143
1.282	7.70854
1.276	7.81556
1.27	7.89297
1.264	7.9206
1.258	8.00494
1.252	8.05133
1.246	8.22288
1.24	8.39945
1.234	8.4841
1.228	8.73903
1.222	8.86727
1.216	9.05047
1.21	9.4122
1.204	9.62167
1.198	9.97962
1.192	10.2758
1.186	10.6748
1.18	11.0653
1.174	11.4904
1.168	11.946
1.162	12.3905
1.156	12.9887
1.15	13.5661
1.144	14.159
1.138	14.8293
1.132	15.551
1.126	16.2866
1.12	17.0742
1.114	17.9433
1.108	18.8248
1.102	19.7127
1.096	20.7102
1.09	21.7139
1.084	22.6893
1.078	23.8279
1.072	24.8849
1.066	26.0729
1.06	27.1376
1.054	28.1965
1.048	29.3985
1.042	30.5026
1.036	31.7373
1.03	32.8203
1.024	33.9931
1.018	35.0401
1.012	36.1127
1.006	37.1327
1	38.065
0.994	38.9819
0.988	39.8621
0.982	40.6296
0.976	41.2898
0.97	41.9992
0.964	42.5691
0.958	43.1686
0.952	43.5973
0.946	44.0345
0.94	44.4725
0.934	44.786
0.928	45.0775
0.922	45.2628
0.916	45.504
0.91	45.6722
0.904	45.8339
0.898	45.9251
0.892	46.0045
0.886	46.0764
0.88	46.1437
0.874	46.1713
0.868	46.1177
0.862	46.1052
0.856	46.1022
0.85	46.1112
0.844	46.1735
0.838	46.1529
0.832	46.1975
0.826	46.1998
0.82	46.1626
0.814	46.0474
0.808	45.9659
0.802	45.8102
0.796	45.5856
0.79	45.3056
0.784	44.981
0.778	44.5893
0.772	44.018
0.766	43.4448
0.76	42.7469
0.754	41.936
0.748	41.0434
0.742	40.0835
0.736	39.0498
0.73	38.0201
0.724	37.0589
0.718	36.1306
0.712	35.3245
0.706	34.6637
0.7	34.1851
0.694	33.8834
0.688	33.7672
0.682	33.7956
0.676	33.9225
0.67	34.1071
0.664	34.2269
0.658	34.2258
0.652	33.9785
0.646	33.4066
0.64	32.519
0.634	31.2386
0.628	29.7542
0.622	28.3295
0.616	27.2016
0.61	26.377
0.604	25.6322
0.598	24.7319
0.592	23.5116
0.586	21.8884
0.58	20.1441
0.574	18.8879
0.568	18.4667
0.562	18.5606
0.556	18.621
0.55	18.3678
0.544	17.7124
0.538	16.7603
0.532	15.6475
0.526	14.7047
0.52	14.1545
0.514	13.7752
0.508	12.991
0.502	12.4678
0.496	12.7819
0.49	13.1837
0.484	13.5859
0.478	13.7018
0.472	13.6256
0.466	13.5866
0.46	13.5006
0.454	13.5905
0.448	13.706
0.442	13.5907
0.436	13.1349
0.43	12.7406
0.424	12.8297
0.418	13.1449
0.412	13.3466
0.406	13.4634
0.4	13.4114
