Name: Sepiolite Mg_4Si_6O_15(OH)_2.6H_2O
Type: Mineral
Class: Silicates
Subclass: Phyllosilicates
Particle Size: 0-45um
Sample No.: PS-5A
Owner: JPL
Origin: USA, Nevada, Two Crows.
Measurement: Hemispherical reflectance
X Units: Wavelength (micrometers)
Y Units: Reflectance (percent)
wavelength	value
2.5	24.3825
2.494	25.138
2.488	25.9612
2.482	26.6546
2.476	27.2983
2.47	27.9965
2.464	28.8316
2.458	29.4244
2.452	29.8274
2.446	30.2258
2.44	30.6814
2.434	30.9063
2.428	31.289
2.422	31.6494
2.416	31.9525
2.41	32.3192
2.404	32.5848
2.398	32.78
2.392	32.9025
2.386	33.2777
2.38	34.4912
2.374	36.1933
2.368	37.8685
2.362	39.3892
2.356	40.661
2.35	41.8666
2.344	42.9421
2.338	43.6194
2.332	43.4573
2.326	42.2092
2.32	40.2976
2.314	39.0407
2.308	39.4933
2.302	41.2276
2.296	43.1436
2.29	44.7229
2.284	46.6215
2.278	48.9739
2.272	50.8911
2.266	52.1589
2.26	53.0507
2.254	53.7193
2.248	54.2665
2.242	54.624
2.236	54.8827
2.23	55.0951
2.224	55.4824
2.218	55.8188
2.212	56.3341
2.206	56.7868
2.2	57.2013
2.194	57.3687
2.188	57.4222
2.182	57.5331
2.176	57.9503
2.17	58.2109
2.164	58.3782
2.158	58.3852
2.152	58.4626
2.146	58.4216
2.14	58.4966
2.134	58.3821
2.128	58.1512
2.122	57.6941
2.116	57.1324
2.11	56.6651
2.104	56.0406
2.098	55.4492
2.092	55.0259
2.086	54.7078
2.08	54.4062
2.074	54.1409
2.068	53.8504
2.062	53.5408
2.056	53.2255
2.05	52.947
2.044	52.5588
2.038	51.9973
2.032	51.1898
2.026	50.1662
2.02	49.0279
2.014	47.8698
2.008	46.6173
2.002	45.3366
1.996	44.0669
1.99	42.9296
1.984	42.0245
1.978	41.3962
1.972	40.8658
1.966	40.5896
1.96	40.5266
1.954	40.3359
1.948	39.8442
1.942	38.8317
1.936	36.5438
1.93	32.4603
1.924	27.603
1.918	24.4643
1.912	23.9229
1.906	24.7305
1.9	28.5444
1.894	35.3226
1.888	42.9851
1.882	49.4051
1.876	55.1081
1.87	60.5751
1.864	63.8038
1.858	65.7815
1.852	67.0465
1.846	67.9755
1.84	68.5543
1.834	69.0122
1.828	69.3684
1.822	69.5035
1.816	69.6654
1.81	69.6478
1.804	69.6248
1.798	69.5257
1.792	69.6033
1.786	69.7834
1.78	70.234
1.774	70.7226
1.768	71.1142
1.762	71.5727
1.756	72.0079
1.75	72.4818
1.744	72.7869
1.738	72.9604
1.732	73.0894
1.726	73.2701
1.72	73.475
1.714	73.794
1.708	74.0117
1.702	74.1835
1.696	74.3138
1.69	74.4258
1.684	74.4762
1.678	74.471
1.672	74.4629
1.666	74.578
1.66	74.4575
1.654	74.3471
1.648	74.3785
1.642	74.4047
1.636	74.269
1.63	74.1849
1.624	73.9877
1.618	73.8953
1.612	73.7628
1.606	73.7168
1.6	73.5121
1.594	73.3289
1.588	73.1351
1.582	72.9467
1.576	72.7546
1.57	72.4642
1.564	72.0612
1.558	71.7235
1.552	71.2955
1.546	70.9491
1.54	70.4561
1.534	69.9693
1.528	69.4227
1.522	68.8958
1.516	68.2809
1.51	67.5934
1.504	66.8273
1.498	65.8908
1.492	64.8481
1.486	63.5256
1.48	61.9523
1.474	60.3278
1.468	59.427
1.462	59.1636
1.456	58.8661
1.45	57.7832
1.444	56.7372
1.438	56.6782
1.432	56.5562
1.426	55.7142
1.42	54.5024
1.414	54.05
1.408	55.9649
1.402	60.2705
1.396	64.5152
1.39	61.5886
1.384	64.9475
1.378	72.5323
1.372	75.6927
1.366	77.1129
1.36	77.7994
1.354	78.21
1.348	78.8064
1.342	79.3947
1.336	80.1286
1.33	80.8444
1.324	81.5024
1.318	81.9737
1.312	82.3684
1.306	82.7081
1.3	82.9151
1.294	83.0588
1.288	83.2816
1.282	83.391
1.276	83.2947
1.27	83.3563
1.264	83.5258
1.258	83.5638
1.252	83.6049
1.246	83.6339
1.24	83.5993
1.234	83.5484
1.228	83.502
1.222	83.5863
1.216	83.5238
1.21	83.5037
1.204	83.357
1.198	83.3092
1.192	83.197
1.186	83.2749
1.18	83.1758
1.174	82.7679
1.168	82.3225
1.162	82.2486
1.156	82.1951
1.15	82.5435
1.144	83.4843
1.138	84.2348
1.132	84.5291
1.126	84.8066
1.12	84.8707
1.114	84.9256
1.108	84.9655
1.102	85.1391
1.096	85.1407
1.09	85.1304
1.084	85.1631
1.078	85.1479
1.072	85.0661
1.066	85.168
1.06	85.1239
1.054	85.2397
1.048	85.1882
1.042	85.1301
1.036	85.0274
1.03	85.0173
1.024	84.9846
1.018	84.9858
1.012	84.8076
1.006	84.72
1	84.595
0.994	84.396
0.988	84.2454
0.982	84.2144
0.976	84.0083
0.97	83.995
0.964	83.9384
0.958	84.1842
0.952	84.3946
0.946	84.023
0.94	84.7564
0.934	84.9525
0.928	85.0496
0.922	85.1226
0.916	85.1587
0.91	85.1716
0.904	85.2268
0.898	85.177
0.892	85.2086
0.886	85.1984
0.88	85.2299
0.874	85.1805
0.868	85.1971
0.862	85.1759
0.856	85.4845
0.85	85.471
0.844	85.3696
0.838	85.4693
0.832	85.5066
0.826	85.5041
0.82	85.5614
0.814	85.5322
0.808	85.5602
0.802	85.5654
0.796	85.4498
0.79	85.507
0.784	85.4939
0.778	85.4362
0.772	85.3068
0.766	85.2924
0.76	85.2654
0.754	85.2831
0.748	85.2325
0.742	85.1451
0.736	85.1161
0.73	85.1293
0.724	85.0758
0.718	85.0487
0.712	85.0089
0.706	84.9735
0.7	84.9335
0.694	84.8645
0.688	84.7941
0.682	84.7464
0.676	84.6456
0.67	84.5663
0.664	84.4537
0.658	84.346
0.652	84.2605
0.646	84.1295
0.64	84.0217
0.634	83.9017
0.628	83.788
0.622	83.6919
0.616	83.5675
0.61	83.4307
0.604	83.2811
0.598	83.1635
0.592	83.0141
0.586	82.8105
0.58	82.6022
0.574	82.3887
0.568	82.1476
0.562	81.8928
0.556	81.6531
0.55	81.3758
0.544	81.1167
0.538	80.8714
0.532	80.5813
0.526	80.2872
0.52	79.9794
0.514	79.6719
0.508	79.3582
0.502	79.0191
0.496	78.6713
0.49	78.3096
0.484	77.8769
0.478	77.4909
0.472	77.0758
0.466	76.6862
0.46	76.242
0.454	75.8196
0.448	75.3381
0.442	74.8362
0.436	74.3782
0.43	73.8983
0.424	73.4788
0.418	73.1309
0.412	72.7477
0.406	72.4141
0.4	72.0877
