Name: Molybdenite MoS_2
Type: Mineral
Class: Sulfides
Particle Size: 0-45um
Sample No.: S-11A
Owner: JPL
Origin: Norway, Arendal, Froland.
Measurement: Hemispherical reflectance
X Units: Wavelength (micrometers)
Y Units: Reflectance (percent)
wavelength	value
2.5	51.737
2.494	51.3731
2.488	51.4688
2.482	51.5884
2.476	51.6045
2.47	51.5293
2.464	51.6087
2.458	51.5754
2.452	51.6994
2.446	51.6353
2.44	51.8547
2.434	51.8535
2.428	51.909
2.422	51.9831
2.416	51.8993
2.41	52.0176
2.404	52.0363
2.398	52.0108
2.392	52.1731
2.386	52.1742
2.38	52.2123
2.374	52.2607
2.368	52.354
2.362	52.2761
2.356	52.3953
2.35	52.4045
2.344	52.2691
2.338	52.3054
2.332	52.3284
2.326	52.2218
2.32	52.1685
2.314	52.1829
2.308	52.1911
2.302	52.1177
2.296	52.1583
2.29	52.1335
2.284	52.1031
2.278	52.0964
2.272	52.0594
2.266	52.047
2.26	52.0778
2.254	52.1252
2.248	51.985
2.242	52.0762
2.236	52.1214
2.23	52.0529
2.224	52.1216
2.218	52.06
2.212	52.1274
2.206	52.1446
2.2	52.1579
2.194	52.1518
2.188	52.1573
2.182	52.1593
2.176	52.253
2.17	52.3112
2.164	52.4342
2.158	52.4367
2.152	52.4199
2.146	52.3903
2.14	52.2702
2.134	52.2802
2.128	52.1358
2.122	51.9228
2.116	51.7792
2.11	51.5714
2.104	51.3897
2.098	51.2369
2.092	51.2624
2.086	51.2617
2.08	51.2698
2.074	51.2222
2.068	51.2394
2.062	51.2216
2.056	51.2456
2.05	51.138
2.044	51.1615
2.038	51.1523
2.032	51.0686
2.026	51.0499
2.02	50.9305
2.014	50.9192
2.008	50.7568
2.002	50.6795
1.996	50.561
1.99	50.4546
1.984	50.3331
1.978	50.1536
1.972	49.989
1.966	49.9774
1.96	49.847
1.954	49.7384
1.948	49.6388
1.942	49.5378
1.936	49.5011
1.93	49.4344
1.924	49.4318
1.918	49.3978
1.912	49.5396
1.906	49.5231
1.9	49.5017
1.894	49.558
1.888	49.6555
1.882	49.5859
1.876	49.5539
1.87	49.389
1.864	49.4587
1.858	49.3549
1.852	49.3638
1.846	49.1721
1.84	49.1254
1.834	49.1409
1.828	49.0143
1.822	48.8583
1.816	48.7618
1.81	48.6833
1.804	48.6528
1.798	48.5012
1.792	48.5127
1.786	48.3489
1.78	48.2016
1.774	48.0521
1.768	47.9635
1.762	47.8566
1.756	47.6911
1.75	47.6144
1.744	47.5237
1.738	47.3817
1.732	47.3025
1.726	47.1409
1.72	47.0239
1.714	46.9709
1.708	46.8089
1.702	46.6334
1.696	46.5453
1.69	46.3779
1.684	46.2658
1.678	46.2123
1.672	46.0206
1.666	45.9266
1.66	45.7882
1.654	45.7334
1.648	45.5355
1.642	45.5168
1.636	45.2678
1.63	45.2052
1.624	44.9879
1.618	44.8898
1.612	44.8753
1.606	44.6645
1.6	44.5721
1.594	44.5108
1.588	44.3484
1.582	44.2258
1.576	44.0517
1.57	43.8858
1.564	43.8658
1.558	43.7851
1.552	43.5838
1.546	43.4654
1.54	43.4022
1.534	43.2524
1.528	43.1383
1.522	43.0112
1.516	42.8659
1.51	42.7651
1.504	42.6326
1.498	42.5696
1.492	42.4374
1.486	42.3015
1.48	42.213
1.474	42.1089
1.468	41.9648
1.462	41.8753
1.456	41.7193
1.45	41.5811
1.444	41.4465
1.438	41.4032
1.432	41.2625
1.426	41.1665
1.42	41.0389
1.414	40.9592
1.408	40.8592
1.402	40.7955
1.396	40.7583
1.39	40.5857
1.384	40.5748
1.378	40.4362
1.372	40.2556
1.366	40.1631
1.36	39.9519
1.354	39.935
1.348	39.8039
1.342	39.73
1.336	39.535
1.33	39.4368
1.324	39.3257
1.318	39.2484
1.312	39.1004
1.306	38.9179
1.3	38.8009
1.294	38.7081
1.288	38.5817
1.282	38.4134
1.276	38.3298
1.27	38.197
1.264	38.0301
1.258	37.928
1.252	37.7881
1.246	37.6729
1.24	37.5247
1.234	37.3839
1.228	37.2632
1.222	37.1545
1.216	36.9936
1.21	36.8616
1.204	36.6475
1.198	36.5739
1.192	36.4011
1.186	36.2878
1.18	36.0855
1.174	35.9464
1.168	35.822
1.162	35.6671
1.156	35.5468
1.15	35.3368
1.144	35.2637
1.138	35.0951
1.132	34.9191
1.126	34.7625
1.12	34.6568
1.114	34.5087
1.108	34.3061
1.102	34.1923
1.096	34.0042
1.09	33.845
1.084	33.7521
1.078	33.6458
1.072	33.403
1.066	33.298
1.06	33.1238
1.054	33.0439
1.048	32.7872
1.042	32.6791
1.036	32.5635
1.03	32.3264
1.024	32.2002
1.018	31.9274
1.012	31.8936
1.006	31.6656
1	31.3791
0.994	31.1305
0.988	30.886
0.982	30.5862
0.976	30.279
0.97	29.8578
0.964	29.4878
0.958	29.0639
0.952	28.52
0.946	27.9934
0.94	27.4685
0.934	26.8314
0.928	26.1988
0.922	25.5964
0.916	24.8808
0.91	24.3407
0.904	23.6678
0.898	23.0503
0.892	22.4841
0.886	21.8732
0.88	21.2943
0.874	20.7166
0.868	20.1711
0.862	19.7497
0.856	19.3593
0.85	18.9841
0.844	18.6651
0.838	18.3619
0.832	18.0365
0.826	17.767
0.82	17.4829
0.814	17.2144
0.808	16.9568
0.802	16.7182
0.796	16.4613
0.79	16.2406
0.784	15.9986
0.778	15.7832
0.772	15.547
0.766	15.3244
0.76	15.1065
0.754	14.8831
0.748	14.6534
0.742	14.4232
0.736	14.1776
0.73	13.9221
0.724	13.6296
0.718	13.3184
0.712	12.9455
0.706	12.524
0.7	12.0643
0.694	11.6371
0.688	11.2811
0.682	11.0292
0.676	10.7959
0.67	10.4198
0.664	10.0331
0.658	9.81619
0.652	9.75448
0.646	9.8271
0.64	9.95082
0.634	10.0741
0.628	10.1632
0.622	10.2043
0.616	10.1787
0.61	10.0655
0.604	9.84968
0.598	9.63245
0.592	9.53081
0.586	9.53971
0.58	9.59021
0.574	9.63901
0.568	9.67892
0.562	9.71601
0.556	9.76409
0.55	9.80701
0.544	9.8526
0.538	9.90651
0.532	9.97162
0.526	10.046
0.52	10.1368
0.514	10.2506
0.508	10.3907
0.502	10.546
0.496	10.724
0.49	10.892
0.484	11.041
0.478	11.1387
0.472	11.2556
0.466	11.3704
0.46	11.4647
0.454	11.5029
0.448	11.4479
0.442	11.3123
0.436	11.1494
0.43	11.043
0.424	10.9824
0.418	10.9737
0.412	10.9911
0.406	11.0244
0.4	11.0495
