Name: Cerussite PbCO_3
Type: Mineral
Class: Carbonates
Particle Size: 125-500um
Sample No.: C-10A
Owner: JPL
Wavelength Range: VNIR-SWIR
Origin: USA, Arizona, Flux Mine
Measurement: Hemispherical reflectance
X Units: Wavelength (micrometers)
Y Units: Reflectance (percent)
wavelength	value
0.4	71.06
0.403	71.36
0.406	71.64
0.409	71.87
0.412	72.16
0.415	72.39
0.418	72.43
0.421	72.78
0.424	73.03
0.427	73.26
0.43	73.49
0.433	73.64
0.436	73.99
0.439	74.17
0.442	74.35
0.445	74.57
0.448	74.67
0.451	74.91
0.454	74.93
0.457	75.07
0.46	75.33
0.463	75.5
0.466	75.63
0.469	75.89
0.472	75.9
0.475	76.05
0.478	76.27
0.481	76.38
0.484	76.53
0.487	76.62
0.49	76.65
0.493	76.77
0.496	76.98
0.499	77.15
0.502	77.15
0.505	77.34
0.508	77.5
0.511	77.7
0.514	77.84
0.517	78.1
0.52	78.13
0.523	78.35
0.526	78.46
0.529	78.6
0.532	78.82
0.535	78.89
0.538	79.1
0.541	79.2
0.544	79.38
0.547	79.53
0.55	79.6
0.553	79.79
0.556	79.96
0.559	80.04
0.562	80.4
0.565	80.05
0.568	80.05
0.571	79.89
0.574	79.66
0.577	79.44
0.58	78.92
0.583	79.58
0.586	79.75
0.589	80.47
0.592	80.75
0.595	80.94
0.598	81.03
0.601	81.17
0.604	81.18
0.607	81.4
0.61	81.36
0.613	81.43
0.616	81.45
0.619	81.31
0.622	81.56
0.625	81.48
0.628	81.6
0.631	81.77
0.634	81.6
0.637	81.72
0.64	81.7
0.643	81.82
0.646	81.74
0.649	81.89
0.652	81.82
0.655	82
0.658	82
0.661	81.92
0.664	82.01
0.667	82.01
0.67	81.98
0.673	82.07
0.676	82.09
0.679	82.1
0.682	82.1
0.685	82.19
0.688	82.29
0.691	82.34
0.694	82.21
0.697	82.18
0.7	82.23
0.703	82.32
0.706	82.41
0.709	82.41
0.712	82.42
0.715	82.47
0.718	82.46
0.721	82.47
0.724	82.5
0.727	82.34
0.73	82.23
0.733	82.06
0.736	82.38
0.739	82.42
0.742	82.44
0.745	82.62
0.748	82.62
0.751	82.6
0.754	82.74
0.757	82.72
0.76	82.83
0.763	82.7
0.766	82.76
0.769	82.85
0.772	82.77
0.775	82.83
0.778	82.79
0.781	82.93
0.784	82.92
0.787	82.86
0.79	82.77
0.793	82.81
0.796	82.76
0.799	82.72
0.808	82.85
0.82	83.04
0.832	83.17
0.844	83.35
0.856	83.4
0.868	83.49
0.88	83.55
0.892	83.71
0.904	83.77
0.916	83.81
0.928	83.91
0.94	84
0.952	84.08
0.964	84.13
0.976	84.2
0.988	84.33
1	84.36
1.012	84.43
1.024	84.51
1.036	84.65
1.048	84.9
1.06	84.81
1.072	84.79
1.084	84.84
1.096	84.95
1.108	84.96
1.12	85.1
1.132	85.1
1.144	85.02
1.156	84.94
1.168	84.92
1.18	84.93
1.192	84.98
1.204	84.96
1.216	84.98
1.228	85.03
1.24	85.13
1.252	85.17
1.264	85.15
1.276	85.17
1.288	85.13
1.3	85.05
1.312	85.04
1.324	84.93
1.336	84.86
1.348	84.58
1.36	84.51
1.372	84.25
1.384	83.6
1.396	82.2
1.408	80.75
1.42	80.04
1.432	79.6
1.444	79.58
1.456	79.58
1.468	79.81
1.48	80.37
1.492	80.9
1.504	81.55
1.516	81.97
1.528	82.34
1.54	82.73
1.552	83.14
1.564	83.45
1.576	83.65
1.588	83.75
1.6	83.94
1.612	83.96
1.624	83.95
1.636	83.98
1.648	84.06
1.66	84.12
1.672	84.21
1.684	84.29
1.696	84.15
1.708	84.03
1.72	83.89
1.732	83.75
1.744	83.51
1.756	83.2
1.768	82.93
1.78	82.61
1.792	82.43
1.804	82.36
1.816	82.21
1.828	82.13
1.84	82.08
1.852	81.66
1.864	80.53
1.876	77.88
1.888	73.94
1.9	70.2
1.912	67.93
1.924	67.06
1.936	66.72
1.948	67.22
1.96	67.82
1.972	68.86
1.984	70.27
1.996	71.85
2.008	73.09
2.02	73.97
2.032	74.31
2.044	74.38
2.056	74.19
2.068	73.89
2.08	73.86
2.092	75.22
2.104	77.03
2.116	78.35
2.128	79.17
2.14	79.62
2.152	79.74
2.164	79.63
2.176	79.24
2.188	78.59
2.2	77.84
2.212	76.74
2.224	75.18
2.236	73.99
2.248	73.29
2.26	73.1
2.272	72.88
2.284	72.21
2.296	70.77
2.308	68.84
2.32	67.07
2.332	65.19
2.344	63.12
2.356	61.06
2.368	58.87
2.38	56.77
2.392	54.59
2.404	52.56
2.416	50.64
2.428	49.37
2.44	48.33
2.452	47.43
2.464	47.23
2.476	48.02
2.488	49.79
2.5	51.84
