Name: Cryolite Na_3AlF_6
Type: Mineral
Class: Halides
Particle Size: 125-500um
Sample No.: H-1A
Owner: JPL
Wavelength Range: VNIR-SWIR
Origin: Denmark, Greenland, Ivigtut
Measurement: Hemispherical reflectance
X Units: Wavelength (micrometers)
Y Units: Reflectance (percent)
wavelength	value
0.4	85.49
0.403	85.56
0.406	85.57
0.409	85.7
0.412	85.58
0.415	85.68
0.418	85.82
0.421	85.69
0.424	85.82
0.427	85.81
0.43	85.88
0.433	85.98
0.436	86.04
0.439	86.01
0.442	86.13
0.445	86.23
0.448	86.28
0.451	86.17
0.454	86.28
0.457	86.54
0.46	86.42
0.463	86.32
0.466	86.56
0.469	86.43
0.472	86.64
0.475	86.59
0.478	86.61
0.481	86.66
0.484	86.62
0.487	86.77
0.49	86.68
0.493	86.74
0.496	86.71
0.499	86.74
0.502	86.87
0.505	86.88
0.508	86.96
0.511	86.9
0.514	87.04
0.517	86.89
0.52	87.1
0.523	87.06
0.526	87.11
0.529	86.97
0.532	87.02
0.535	86.98
0.538	87.03
0.541	87.1
0.544	86.97
0.547	87
0.55	86.98
0.553	87.11
0.556	87.04
0.559	87.13
0.562	87.52
0.565	87.54
0.568	87.37
0.571	87.42
0.574	87.21
0.577	87.35
0.58	87.21
0.583	87.16
0.586	87.2
0.589	87.22
0.592	87.32
0.595	87.21
0.598	87.25
0.601	87.35
0.604	87.41
0.607	87.42
0.61	87.33
0.613	87.23
0.616	87.21
0.619	86.99
0.622	87.22
0.625	87.34
0.628	87.18
0.631	87.04
0.634	87.21
0.637	87.28
0.64	87.28
0.643	87.32
0.646	87.38
0.649	87.28
0.652	87.17
0.655	87.23
0.658	87.31
0.661	87.29
0.664	87.27
0.667	87.35
0.67	87.14
0.673	87.28
0.676	87.32
0.679	87.28
0.682	87.14
0.685	87.28
0.688	87.16
0.691	87.34
0.694	87.25
0.697	87.27
0.7	87.2
0.703	87.27
0.706	87.28
0.709	87.17
0.712	87.16
0.715	87.21
0.718	87.33
0.721	87.17
0.724	87.03
0.727	87.01
0.73	87.06
0.733	87.16
0.736	87.06
0.739	87.05
0.742	87.02
0.745	87.07
0.748	87.12
0.751	87.08
0.754	87
0.757	86.91
0.76	87.02
0.763	87.01
0.766	87.08
0.769	87.03
0.772	86.97
0.775	86.91
0.778	87.03
0.781	86.97
0.784	86.97
0.787	87.04
0.79	86.91
0.793	86.98
0.796	87.13
0.799	87.21
0.808	87.21
0.82	87.26
0.832	87.2
0.844	87.36
0.856	87.36
0.868	87.41
0.88	87.29
0.892	87.35
0.904	87.47
0.916	87.48
0.928	87.47
0.94	87.58
0.952	87.58
0.964	87.52
0.976	87.59
0.988	87.54
1	87.58
1.012	87.6
1.024	87.59
1.036	87.67
1.048	87.59
1.06	87.69
1.072	87.7
1.084	87.76
1.096	87.8
1.108	87.76
1.12	87.94
1.132	87.94
1.144	87.82
1.156	87.69
1.168	87.68
1.18	87.65
1.192	87.6
1.204	87.74
1.216	87.69
1.228	87.73
1.24	87.62
1.252	87.71
1.264	87.69
1.276	87.73
1.288	87.77
1.3	87.67
1.312	87.58
1.324	87.5
1.336	87.43
1.348	87.48
1.36	87.47
1.372	87.34
1.384	87.18
1.396	86.98
1.408	86.68
1.42	86.33
1.432	86.28
1.444	86.06
1.456	86.07
1.468	86.37
1.48	86.62
1.492	86.86
1.504	86.89
1.516	87.13
1.528	87.19
1.54	87.28
1.552	87.33
1.564	87.49
1.576	87.5
1.588	87.56
1.6	87.64
1.612	87.64
1.624	87.62
1.636	87.68
1.648	87.75
1.66	87.79
1.672	87.84
1.684	87.85
1.696	87.85
1.708	87.73
1.72	87.81
1.732	87.73
1.744	87.57
1.756	87.5
1.768	87.33
1.78	87.45
1.792	87.38
1.804	87.49
1.816	87.38
1.828	87.42
1.84	87.29
1.852	87.21
1.864	86.92
1.876	86.42
1.888	85.47
1.9	84.16
1.912	82.78
1.924	81.78
1.936	82.21
1.948	82.97
1.96	83.9
1.972	84.67
1.984	85.23
1.996	85.65
2.008	85.9
2.02	86.17
2.032	86.33
2.044	86.46
2.056	86.54
2.068	86.64
2.08	86.91
2.092	87.15
2.104	87.31
2.116	87.5
2.128	87.51
2.14	87.45
2.152	87.02
2.164	86.67
2.176	86.6
2.188	86.61
2.2	86.61
2.212	86.38
2.224	86.36
2.236	86.31
2.248	86.61
2.26	86.63
2.272	86.63
2.284	86.45
2.296	86.23
2.308	85.97
2.32	85.75
2.332	85.26
2.344	84.79
2.356	84.39
2.368	83.99
2.38	83.62
2.392	83.31
2.404	83.13
2.416	83.18
2.428	83.15
2.44	82.97
2.452	82.77
2.464	82.54
2.476	82.66
2.488	83.27
2.5	83.84
