Name: Realgar AsS
Type: Mineral
Class: Sulfides
Particle Size: 45-125um
Sample No.: S-3A
Owner: JPL
Wavelength Range: VNIR-SWIR
Measurement: Hemispherical reflectance
X Units: Wavelength (micrometers)
Y Units: Reflectance (percent)
wavelength	value
0.4	5.94
0.403	5.94
0.406	5.8
0.409	5.87
0.412	5.87
0.415	5.86
0.418	5.87
0.421	5.81
0.424	5.79
0.427	5.85
0.43	5.86
0.433	5.74
0.436	5.86
0.439	5.74
0.442	5.72
0.445	5.83
0.448	5.83
0.451	5.67
0.454	5.72
0.457	5.66
0.46	5.67
0.463	5.65
0.466	5.6
0.469	5.55
0.472	5.61
0.475	5.5
0.478	5.64
0.481	5.6
0.484	5.62
0.487	5.55
0.49	5.65
0.493	5.63
0.496	5.66
0.499	5.59
0.502	5.57
0.505	5.57
0.508	5.64
0.511	5.69
0.514	5.61
0.517	5.74
0.52	5.73
0.523	5.77
0.526	5.78
0.529	5.93
0.532	6.03
0.535	6.21
0.538	6.27
0.541	6.43
0.544	6.63
0.547	7.01
0.55	7.45
0.553	7.9
0.556	8.66
0.559	9.19
0.562	10.99
0.565	12.63
0.568	14.62
0.571	16.92
0.574	19.7
0.577	22.95
0.58	26.24
0.583	29.96
0.586	33.84
0.589	37.69
0.592	41.38
0.595	45.07
0.598	48.32
0.601	51.44
0.604	54.25
0.607	56.64
0.61	58.59
0.613	60.41
0.616	61.94
0.619	63.19
0.622	64.33
0.625	65.34
0.628	66.02
0.631	66.63
0.634	67.34
0.637	67.78
0.64	68.23
0.643	68.71
0.646	68.94
0.649	69.21
0.652	69.57
0.655	69.76
0.658	69.98
0.661	70.25
0.664	70.41
0.667	70.5
0.67	70.69
0.673	70.75
0.676	70.97
0.679	71.1
0.682	71.24
0.685	71.34
0.688	71.39
0.691	71.6
0.694	71.67
0.697	71.71
0.7	71.8
0.703	72.1
0.706	72.26
0.709	72.39
0.712	72.33
0.715	72.53
0.718	72.68
0.721	72.83
0.724	72.94
0.727	73.08
0.73	73.08
0.733	73.23
0.736	73.46
0.739	73.5
0.742	73.74
0.745	73.94
0.748	73.99
0.751	74.11
0.754	74.26
0.757	74.49
0.76	74.78
0.763	75.08
0.766	74.96
0.769	75.07
0.772	75.3
0.775	75.44
0.778	75.54
0.781	75.7
0.784	75.85
0.787	75.94
0.79	76.1
0.793	76.15
0.796	76.35
0.799	76.34
0.808	76.69
0.82	76.96
0.832	77.18
0.844	77.45
0.856	77.63
0.868	77.93
0.88	77.97
0.892	78.17
0.904	78.14
0.916	78.39
0.928	78.43
0.94	78.66
0.952	78.74
0.964	78.85
0.976	78.87
0.988	78.95
1	78.97
1.012	79.05
1.024	79.21
1.036	79.23
1.048	79.31
1.06	79.37
1.072	79.42
1.084	79.44
1.096	79.57
1.108	79.66
1.12	79.82
1.132	79.89
1.144	79.82
1.156	79.86
1.168	79.92
1.18	79.96
1.192	80.12
1.204	80.19
1.216	80.2
1.228	80.34
1.24	80.43
1.252	80.66
1.264	80.69
1.276	80.83
1.288	81.05
1.3	81.09
1.312	81.27
1.324	81.29
1.336	81.35
1.348	81.55
1.36	81.74
1.372	81.83
1.384	81.92
1.396	81.91
1.408	81.82
1.42	81.8
1.432	81.97
1.444	82.05
1.456	82.29
1.468	82.46
1.48	82.8
1.492	83
1.504	83.22
1.516	83.62
1.528	83.73
1.54	84.05
1.552	84.18
1.564	84.34
1.576	84.48
1.588	84.7
1.6	84.85
1.612	85.02
1.624	85.13
1.636	85.28
1.648	85.36
1.66	85.57
1.672	85.56
1.684	85.68
1.696	85.74
1.708	85.81
1.72	85.77
1.732	85.89
1.744	85.74
1.756	85.8
1.768	85.76
1.78	85.86
1.792	85.89
1.804	85.91
1.816	85.88
1.828	85.94
1.84	85.79
1.852	85.73
1.864	85.51
1.876	84.82
1.888	83.67
1.9	82.3
1.912	81.39
1.924	81.06
1.936	81.02
1.948	81.31
1.96	81.78
1.972	82.23
1.984	82.67
1.996	83.32
2.008	83.54
2.02	84.12
2.032	84.33
2.044	84.61
2.056	84.81
2.068	85.16
2.08	85.26
2.092	85.51
2.104	85.77
2.116	85.94
2.128	86.1
2.14	86.15
2.152	85.92
2.164	85.96
2.176	85.78
2.188	85.75
2.2	85.68
2.212	85.61
2.224	85.6
2.236	85.48
2.248	85.51
2.26	85.53
2.272	85.45
2.284	85.28
2.296	85.3
2.308	85.29
2.32	85.52
2.332	85.51
2.344	85.38
2.356	85.24
2.368	85.02
2.38	84.85
2.392	84.55
2.404	84.35
2.416	84.19
2.428	83.99
2.44	83.6
2.452	83.3
2.464	82.89
2.476	82.64
2.488	82.63
2.5	82.87
