Name: Plumbojarosite PbFe_3^3+(SO_4)_4(OH)_12
Type: Mineral
Class: Sulfates
Particle Size: 45-125um
Sample No.: SO-7B
Owner: JPL
Wavelength Range: VNIR-SWIR
Origin: Mexico, Hidalgo, Zimapan, Lomo De Toro Mine
Measurement: Hemispherical reflectance
X Units: Wavelength (micrometers)
Y Units: Reflectance (percent)
wavelength	value
0.4	4.67
0.403	5.03
0.406	5.26
0.409	5.57
0.412	5.87
0.415	6.1
0.418	6.46
0.421	6.7
0.424	6.86
0.427	6.99
0.43	7.18
0.433	7.35
0.436	7.53
0.439	7.89
0.442	8.23
0.445	8.63
0.448	9.13
0.451	9.67
0.454	10.06
0.457	10.38
0.46	10.57
0.463	10.96
0.466	11.15
0.469	11.36
0.472	11.69
0.475	11.99
0.478	12.23
0.481	12.56
0.484	12.98
0.487	13.33
0.49	13.71
0.493	14.08
0.496	14.48
0.499	14.97
0.502	15.52
0.505	16
0.508	16.53
0.511	17.08
0.514	17.67
0.517	18.37
0.52	18.97
0.523	19.7
0.526	20.34
0.529	21.07
0.532	21.9
0.535	22.58
0.538	23.43
0.541	24.19
0.544	25.03
0.547	25.88
0.55	26.69
0.553	27.46
0.556	28.19
0.559	28.67
0.562	29.89
0.565	30.49
0.568	31.12
0.571	31.74
0.574	32.28
0.577	32.9
0.58	33.35
0.583	33.8
0.586	34.3
0.589	34.75
0.592	35.17
0.595	35.59
0.598	36.08
0.601	36.39
0.604	36.76
0.607	37.19
0.61	37.59
0.613	37.9
0.616	38.17
0.619	38.44
0.622	38.86
0.625	39.26
0.628	39.53
0.631	39.81
0.634	40.06
0.637	40.55
0.64	40.78
0.643	41.11
0.646	41.45
0.649	41.74
0.652	42.04
0.655	42.3
0.658	42.7
0.661	43.03
0.664	43.3
0.667	43.73
0.67	43.97
0.673	44.3
0.676	44.68
0.679	44.85
0.682	45.37
0.685	45.57
0.688	45.88
0.691	46.11
0.694	46.43
0.697	46.69
0.7	47.01
0.703	47.46
0.706	47.69
0.709	48.07
0.712	48.28
0.715	48.59
0.718	48.76
0.721	49.1
0.724	49.22
0.727	49.42
0.73	49.51
0.733	49.68
0.736	49.74
0.739	49.65
0.742	49.82
0.745	49.77
0.748	49.79
0.751	49.73
0.754	49.56
0.757	49.42
0.76	49.24
0.763	49.04
0.766	48.85
0.769	48.64
0.772	48.36
0.775	48.01
0.778	47.81
0.781	47.49
0.784	47.23
0.787	46.9
0.79	46.47
0.793	46.2
0.796	45.86
0.799	45.59
0.808	44.79
0.82	43.46
0.832	42.23
0.844	41.11
0.856	40.24
0.868	39.54
0.88	38.94
0.892	38.48
0.904	38.18
0.916	38.03
0.928	37.95
0.94	38.06
0.952	38.18
0.964	38.42
0.976	38.77
0.988	39.16
1	39.68
1.012	40.43
1.024	41.2
1.036	42.03
1.048	42.97
1.06	44
1.072	45.06
1.084	46.19
1.096	47.38
1.108	48.66
1.12	50.12
1.132	51.44
1.144	52.87
1.156	54.28
1.168	55.66
1.18	57.15
1.192	58.39
1.204	59.84
1.216	61.02
1.228	62.2
1.24	63.21
1.252	64.4
1.264	65.38
1.276	66.16
1.288	67.16
1.3	67.87
1.312	68.56
1.324	69.26
1.336	69.84
1.348	70.34
1.36	70.84
1.372	71.25
1.384	71.55
1.396	71.62
1.408	71.52
1.42	71.4
1.432	71.18
1.444	70.68
1.456	69.91
1.468	69.31
1.48	69.31
1.492	70.21
1.504	70.66
1.516	70.88
1.528	70.86
1.54	71.14
1.552	71.3
1.564	71.62
1.576	71.96
1.588	72.17
1.6	72.33
1.612	72.39
1.624	72.44
1.636	72.53
1.648	72.66
1.66	72.75
1.672	72.85
1.684	72.82
1.696	72.9
1.708	72.87
1.72	72.83
1.732	72.71
1.744	72.6
1.756	72.44
1.768	72.28
1.78	72.15
1.792	71.95
1.804	71.68
1.816	71.1
1.828	69.95
1.84	69.26
1.852	69.3
1.864	69.23
1.876	69.3
1.888	69.48
1.9	69.3
1.912	68.57
1.924	67.84
1.936	67.44
1.948	67.36
1.96	67.5
1.972	67.64
1.984	67.78
1.996	67.89
2.008	67.78
2.02	67.74
2.032	67.63
2.044	67.56
2.056	67.64
2.068	67.86
2.08	67.99
2.092	68.03
2.104	67.96
2.116	67.91
2.128	67.66
2.14	67.13
2.152	66.39
2.164	65.62
2.176	64.76
2.188	63.5
2.2	62.43
2.212	60.87
2.224	59.01
2.236	56.73
2.248	54.84
2.26	53.79
2.272	53.1
2.284	52.82
2.296	53.52
2.308	54.69
2.32	55.83
2.332	56.64
2.344	56.77
2.356	56.21
2.368	55.05
2.38	53.48
2.392	51.82
2.404	50.68
2.416	50.13
2.428	50.18
2.44	50.52
2.452	51
2.464	51.26
2.476	51.03
2.488	50.53
2.5	49.81
