Name: Grey limestone
Type: Rocks
Class: Sedimentary
Subclass: Carbonate
Particle Size: see additional information
Sample No.: FGE3
Owner: University of NSW
Origin: Picnic Creek Limestone, Fowlers Gap, western New South Wales, Australia
Description: Siliceous fine grained limestone with calcite veining
Measurement: Directional hemispherical reflectance
X Units: Wavelength (micrometers)
Y Units: Reflectance (percent)
wavelength	value
14.983	2.6462
14.728	2.5763
14.481	2.5428
14.242	2.9927
14.011	2.7
13.788	2.5099
13.571	2.8626
13.361	2.9324
13.158	3.0482
12.96	3.0878
12.769	3.2778
12.583	3.1508
12.402	3.054
12.227	3.0172
12.056	3.1754
11.89	3.3478
11.729	3.5459
11.572	4.1895
11.419	7.3695
11.27	10.765
11.125	6.1995
10.983	4.9797
10.846	4.6846
10.711	4.627
10.58	4.8722
10.452	5.1851
10.327	5.5189
10.205	5.7958
10.086	6.1768
9.9695	6.6765
9.8558	6.854
9.7447	7.403
9.636	8.3198
9.5297	8.2589
9.4257	7.9481
9.324	7.9139
9.2245	8.0866
9.127	8.3583
9.0316	8.1203
8.9382	8.207
8.8467	8.4949
8.757	8.5755
8.6692	7.9745
8.583	7.3454
8.4986	7.5768
8.4158	7.8325
8.3347	8.308
8.255	8.6782
8.1769	8.5799
8.1002	7.8001
8.025	7.3852
7.9512	7.1332
7.8786	6.7304
7.8075	6.5617
7.7375	6.5614
7.6689	6.2481
7.6014	5.8559
7.5351	5.9616
7.47	6.066
7.4059	6.1589
7.343	6.3365
7.2811	6.7442
7.2203	7.6762
7.1604	9.7943
7.1016	12.4
7.0437	13.524
6.9867	13.789
6.9307	14.466
6.8755	15.764
6.8213	17.172
6.7678	19.104
6.7152	21.448
6.6634	23.677
6.6124	25.479
6.5622	26.997
6.5128	27.534
6.464	26.496
6.416	19.218
6.3687	12.876
6.3221	8.2048
6.2762	6.4242
6.231	5.2463
6.1863	4.3152
6.1424	3.846
6.099	3.5974
6.0563	3.418
6.0141	3.3051
5.9725	3.181
5.9315	3.1659
5.8911	3.1469
5.8512	3.096
5.8118	3.0331
5.773	2.8945
5.7347	2.9046
5.6969	3.0475
5.6596	3.1084
5.6227	3.0155
5.5864	2.5667
5.5505	2.5301
5.5151	3.3343
5.4801	3.7035
5.4455	4.0177
5.4114	4.2191
5.3778	4.1912
5.3445	4.2111
5.3116	4.3526
5.2792	4.508
5.2471	4.7665
5.2154	4.9862
5.1842	5.1426
5.1532	5.1631
5.1227	5.1834
5.0925	4.9635
5.0627	5.2659
5.0332	5.2842
5.004	5.2933
4.9752	5.4278
4.9467	5.5803
4.9186	5.6839
4.8907	5.8718
4.8632	6.0429
4.836	6.1389
4.809	6.1966
4.7824	6.235
4.7561	6.1654
4.7301	5.9066
4.7043	5.3633
4.6788	5.0749
4.6536	5.1788
4.6287	5.6891
4.604	6.0508
4.5796	6.2116
4.5555	6.2794
4.5316	6.3455
4.508	6.3895
4.4846	6.6026
4.4614	6.875
4.4385	7.1357
4.4158	7.3689
4.3934	7.5192
4.3711	7.6229
4.3491	7.5225
4.3273	7.4991
4.3058	7.5541
4.2844	7.6656
4.2633	7.5927
4.2424	7.6571
4.2216	7.6809
4.2011	7.6252
4.1808	7.5388
4.1606	7.418
4.1407	7.226
4.1209	6.9624
4.1014	6.6473
4.082	6.3553
4.0628	5.9574
4.0438	5.4563
4.025	4.9011
4.0063	4.609
3.9878	4.2738
3.9695	4.2299
3.9513	4.3611
3.9333	4.6343
3.9155	4.7585
3.8979	4.7871
3.8804	4.8151
3.863	4.8568
3.8458	4.9393
3.8288	5.1533
3.8119	5.5338
3.7951	6.3513
3.7785	7.1955
3.7621	7.613
3.7458	7.8077
3.7296	8.0517
3.7136	8.1719
3.6977	8.2326
3.6819	8.2559
3.6663	8.2015
3.6508	8.0779
3.6355	7.9937
3.6202	7.8724
3.6051	7.6588
3.5901	7.2805
3.5753	6.7106
3.5605	6.569
3.5459	6.2236
3.5314	5.6751
3.5171	4.9099
3.5028	4.6531
3.4887	4.4889
3.4746	4.4189
3.4607	4.6992
3.4469	4.7638
3.4332	4.7497
3.4196	4.6452
3.4061	4.6254
3.3928	4.6726
3.3795	4.6367
3.3663	4.603
3.3533	4.5174
3.3403	4.9236
3.3274	5.6131
3.3147	5.817
3.302	5.9309
3.2894	6.0431
3.277	6.109
3.2646	6.078
3.2523	6.0852
3.2401	6.0662
3.228	6.0235
3.216	6.0267
3.204	5.9201
3.1922	5.9017
3.1805	5.8031
3.1688	5.7068
3.1572	5.6151
3.1457	5.53
3.1343	5.5269
3.123	5.5201
3.1117	5.4185
3.1006	5.3529
3.0895	5.3243
3.0785	5.3496
3.0675	5.2444
3.0567	5.2705
3.0459	5.2681
3.0352	5.2319
3.0246	5.3015
3.014	5.2785
3.0036	5.2506
2.9932	5.3246
2.9828	5.3242
2.9726	5.3222
2.9624	5.3972
2.9523	5.4204
2.9422	5.4172
2.9322	5.453
2.9223	5.4879
2.9124	5.4822
2.9027	5.5198
2.8929	5.5445
2.8833	5.6371
2.8737	5.7374
2.8642	5.7913
2.8547	5.8356
2.8453	5.835
2.836	5.8947
2.8267	5.8618
2.8175	5.7506
2.8083	5.5862
2.7992	5.3765
2.7902	5.057
2.7812	4.7172
2.7723	4.5078
2.7634	4.151
2.7546	4.3497
2.7458	4.762
2.7371	5.2499
2.7285	6.3909
2.7199	7.9669
2.7114	8.9812
2.7029	8.6088
2.6945	11.543
2.6861	13.432
2.6778	14.213
2.6695	14.643
2.6613	14.902
2.6531	15.069
2.645	15.169
2.6369	15.261
2.6289	15.269
2.6209	15.355
2.613	15.324
2.6051	15.308
2.5973	15.346
2.5895	15.194
2.5817	15.101
2.5741	14.953
2.5664	14.749
2.5588	14.12
2.5513	13.271
2.5437	12.343
2.5363	11.974
2.5289	12.237
2.5215	12.85
2.5141	13.123
2.5068	13.33
2.4996	13.466
2.4924	13.579
2.4852	13.726
2.4781	14.103
2.471	14.421
2.464	14.798
2.4569	15.1
2.45	15.388
2.4431	15.514
2.4362	15.697
2.4293	15.938
2.4225	16.035
2.4157	16.133
2.409	16.222
2.4023	16.257
2.3956	16.28
2.389	16.336
2.3824	16.274
2.3759	16.29
2.3694	15.985
2.3629	15.74
2.3564	15.188
2.35	14.625
2.3436	14.432
2.3373	14.429
2.331	14.642
2.3247	15.002
2.3185	15.258
2.3123	15.464
2.3061	15.604
2.3	15.672
2.2939	15.865
2.2878	16.004
2.2818	16.219
2.2757	16.474
2.2698	16.618
2.2638	16.685
2.2579	16.747
2.252	16.935
2.2462	16.981
2.2403	17.003
2.2345	17.044
2.2288	16.913
2.2231	16.994
2.2173	16.971
2.2117	17.071
2.206	17.123
2.2004	17.358
2.1948	17.434
2.1893	17.5
2.1837	17.537
2.1782	17.554
2.1727	17.534
2.1673	17.539
2.1619	17.504
2.1565	17.647
2.1511	17.637
2.1458	17.71
2.1404	17.788
2.1352	17.8
2.1299	17.819
2.1247	17.771
2.1194	17.89
2.1143	17.86
2.1091	17.874
2.104	17.962
2.0988	17.98
2.0938	17.995
2.0887	18.076
2.0837	18.084
