Name: Lamp (Ebony) Black Paint
Type: Manmade materials
Class: General Construction Materials
Subclass: Paints
Particle Size: Solid
Sample No.: DA67
Owner: JPL
Origin: DecoArt, P.O. Box 386, Stanford, KY 40084
Description: Lamp (ebony) black acrylic paint.  Liquid format, paint applied
Measurement: Hemispherical reflectance
X Units: Wavelength (micrometers)
Y Units: Reflectance (percent)
wavelength	value
14.0131	6.78963
13.7895	9.47935
13.5729	9.78736
13.363	9.22678
13.1595	9.61824
12.9621	9.70561
12.7705	9.4099
12.5845	8.7519
12.4039	8.73144
12.2284	9.14394
12.0578	9.22111
11.8918	9.45566
11.7304	9.52378
11.5733	8.6623
11.4203	7.22275
11.2714	8.22958
11.1263	8.40978
10.9848	8.27342
10.8469	8.12528
10.7125	7.64255
10.5813	6.92
10.4533	8.09295
10.3284	8.70805
10.2064	8.75524
10.0872	8.35264
9.97084	8.22725
9.8571	7.6672
9.74592	7.14442
9.63724	7.03228
9.53094	6.87597
9.42697	6.70877
9.32524	6.76264
9.22568	6.73677
9.12823	6.54107
9.03281	6.15414
8.93937	5.96689
8.84784	5.84417
8.75816	5.90187
8.67029	6.32217
8.58416	6.52691
8.49973	6.36094
8.41693	6.72634
8.33574	6.96977
8.2561	7.22934
8.17797	7.67976
8.10131	8.08955
8.02606	6.71149
7.9522	4.70004
7.87969	3.78418
7.80849	5.23889
7.73856	6.68918
7.66987	7.17791
7.60239	7.54994
7.5361	7.75785
7.47094	7.71127
7.4069	7.15309
7.34396	6.58531
7.28207	6.01613
7.22122	5.99831
7.16137	7.01229
7.10251	7.89814
7.04461	7.83874
6.98765	7.31169
6.9316	6.88869
6.87644	6.87853
6.82215	6.96177
6.76871	7.23689
6.71611	7.98649
6.66431	8.64493
6.61331	9.20799
6.56308	9.8911
6.51361	10.0842
6.46488	10.4268
6.41687	9.91407
6.36957	8.94275
6.32297	8.18158
6.27704	8.1276
6.23177	8.18772
6.18715	8.21422
6.14317	8.26858
6.0998	8.29785
6.05705	8.4037
6.01489	8.40882
5.97331	8.30279
5.9323	8.03435
5.89186	7.51281
5.85196	7.26398
5.81259	6.65605
5.77376	7.17196
5.73543	4.96961
5.69762	2.82647
5.6603	6.99967
5.62347	8.1712
5.5871	7.13687
5.55121	7.00387
5.51578	8.62753
5.4808	9.03111
5.44625	9.07604
5.41214	9.3103
5.37846	9.23771
5.34519	9.3779
5.31233	9.35652
5.27987	9.53258
5.24781	9.54749
5.21613	9.50766
5.18483	9.58478
5.15391	9.52676
5.12335	9.46263
5.09316	9.35915
5.06331	9.33741
5.03382	9.41523
5.00467	9.30378
4.97585	9.26399
4.94736	9.0775
4.9192	9.16104
4.89135	9.08515
4.86382	9.12401
4.8366	9.12283
4.80968	9.09696
4.78306	9.05405
4.75673	9.08835
4.73069	8.97908
4.70493	8.83458
4.67945	8.6382
4.65425	8.75532
4.62932	8.69361
4.60465	8.64865
4.58024	8.69576
4.55609	8.53115
4.5322	8.64006
4.50855	8.48368
4.48515	8.45182
4.46199	8.42748
4.43907	8.44015
4.41638	8.43067
4.39393	8.34882
4.3717	8.3493
4.34969	8.30431
4.32791	8.32812
4.30634	8.14089
4.28499	8.21121
4.26384	8.1403
4.24291	8.20416
4.22218	8.01564
4.20165	7.99787
4.18132	7.96877
4.16118	7.88403
4.14124	7.9711
4.12149	7.87605
4.10192	7.84843
4.08255	7.69735
4.06335	7.64598
4.04433	7.47212
4.02549	7.19369
4.00683	6.86392
3.98833	6.23565
3.97001	6.19565
3.95186	6.48803
3.93386	6.8928
3.91604	6.92217
3.89837	6.96992
3.88086	6.83517
3.86351	6.92774
3.84631	6.89197
3.82927	7.11588
3.81238	7.12059
3.79563	7.16216
3.77903	7.32938
3.76258	7.13683
3.74627	7.20238
3.7301	7.07016
3.71406	7.17407
3.69817	7.06401
3.68241	7.10174
3.66678	6.86899
3.65129	7.11645
3.63593	6.91134
3.62069	6.8745
3.60559	6.82497
3.59061	6.78402
3.57575	6.69706
3.56101	6.63589
3.5464	6.69324
3.5319	6.46037
3.51753	6.1076
3.50327	5.75747
3.48912	5.46726
3.47509	5.3373
3.46117	5.74408
3.44736	5.52954
3.43367	5.3382
3.42007	5.21984
3.40659	5.0666
3.39322	5.17765
3.37994	5.10504
3.36678	4.93634
3.35371	5.32893
3.34074	5.72695
3.32788	6.0198
3.31511	6.14428
3.30244	6.06585
3.28987	6.3116
3.27739	6.39638
3.26501	6.38232
3.25272	6.39615
3.24052	6.22923
3.22841	6.2934
3.2164	6.18098
3.20447	6.30273
3.19263	6.44914
3.18088	6.29048
3.16921	6.4523
3.15763	6.30311
3.14614	6.31697
3.13472	6.22363
3.12339	6.04145
3.11214	6.184
3.10098	6.18318
3.08989	6.28596
3.07888	6.11945
3.06795	6.21946
3.0571	6.17693
3.04632	6.18011
3.03562	6.13372
3.02499	6.12051
3.01444	6.08927
3.00396	6.02687
2.99355	5.95554
2.98322	6.12016
2.97295	6.03031
2.96276	5.91971
2.95264	6.06459
2.94258	5.93834
2.9326	5.9999
2.92268	6.04585
2.91283	6.0857
2.90304	5.8153
2.89332	5.73555
2.88367	5.87132
2.87408	5.89082
2.86455	5.87906
2.85508	6.02703
2.84568	5.83968
2.83634	5.82676
2.82706	6.09668
2.81784	5.96935
2.80869	5.99805
2.79959	6.01767
2.79055	5.70112
2.78156	5.88528
2.77264	5.69182
2.76377	5.51887
2.75496	5.58091
2.7462	5.63912
2.7375	5.44319
2.72886	5.72408
2.72027	5.75599
2.71173	5.85699
2.70325	5.86492
2.69482	5.87299
2.68644	5.62493
2.67812	5.98837
2.66984	6.02204
2.66162	5.76164
2.65345	5.91708
2.64532	5.93002
2.63725	5.79008
2.62923	5.69713
2.62125	5.70218
2.61332	5.54006
2.60544	5.99696
2.59761	5.95756
2.58983	5.56256
2.58209	5.73139
2.5744	5.81425
2.56675	5.86646
2.55915	5.73376
2.55159	5.769
2.54408	5.75865
2.53661	5.5341
2.52919	5.62068
2.52181	5.72124
2.51447	5.65133
2.50717	5.72638
2.49992	5.59092
2.49271	5.62543
2.48554	5.67082
2.47841	5.70154
2.47132	5.70254
2.46427	5.53738
2.45727	5.68632
2.4503	5.64848
2.44337	5.5489
2.43648	5.91699
2.42963	5.77169
2.42282	5.80358
2.41605	5.56733
2.40931	5.64229
2.40261	5.40119
2.39595	5.46187
2.38932	5.34317
2.38274	5.60883
2.37618	5.52774
2.36967	5.5912
2.36319	5.59905
2.35674	5.50314
2.35033	5.64251
2.34396	5.62322
2.33762	5.72194
2.33131	5.4905
2.32504	5.68814
2.3188	5.36817
2.31259	5.43582
2.30642	5.33999
2.30028	5.74738
2.29417	5.28936
2.2881	5.59104
2.28206	5.6775
2.27605	5.53864
2.27007	5.51892
2.26412	5.43842
2.2582	5.31566
2.25232	5.319
2.24646	5.48244
2.24064	5.42883
2.23484	5.5228
2.22908	5.40225
2.22334	5.30684
2.21764	5.50406
2.21196	5.45693
2.20631	5.46997
2.20069	5.53097
2.1951	5.62488
2.18954	5.19405
2.18401	5.27789
2.1785	5.53485
2.17302	5.38844
2.16757	5.50799
2.16215	5.15975
2.15675	5.78305
2.15138	5.18064
2.14604	5.30544
2.14072	5.66527
2.13543	5.01304
2.13017	5.48034
2.12493	5.34701
2.11972	5.35263
2.11453	5.24474
2.10937	5.2196
2.10423	5.55618
2.09912	5.33834
2.09404	5.32609
2.08897	5.27493
2.08394	5.21608
2.07892	5.39309
2.07393	5.27427
2.06897	5.42499
2.06403	5.66037
2.05911	4.7102
2.05421	5.50816
2.04934	5.58105
2.04449	5.30311
2.03967	5.38817
2.03486	5.39316
2.03008	5.33464
2.02533	5.27267
2.02059	5.10502
2.01588	5.31922
2.01118	5.16096
2.00651	5.27419
2.00187	5.48563
