Name: Chabazite CaAl_2Si_4O_12.6H_2O
Type: Mineral
Class: Silicates
Subclass: Tectosilicates
Particle Size: 0-45um
Sample No.: TS-15A
Owner: JPL
Wavelength Range: VNIR-SWIR
Origin: USA, Oregon, Grant County, Ritter Hot Springs
Measurement: Hemispherical reflectance
X Units: Wavelength (micrometers)
Y Units: Reflectance (percent)
wavelength	value
0.4	77.62
0.403	78.12
0.406	78.26
0.409	78.51
0.412	78.61
0.415	78.97
0.418	79.08
0.421	79.31
0.424	79.29
0.427	79.57
0.43	79.59
0.433	80.03
0.436	80.4
0.439	80.55
0.442	80.66
0.445	80.76
0.448	80.95
0.451	81.11
0.454	81.32
0.457	81.55
0.46	81.64
0.463	81.82
0.466	81.93
0.469	81.99
0.472	82
0.475	82.19
0.478	82.23
0.481	82.47
0.484	82.4
0.487	82.64
0.49	82.56
0.493	82.76
0.496	82.9
0.499	83.22
0.502	83.24
0.505	83.25
0.508	83.52
0.511	83.54
0.514	83.8
0.517	83.99
0.52	84.07
0.523	84.04
0.526	84.29
0.529	84.17
0.532	84.5
0.535	84.54
0.538	84.75
0.541	84.76
0.544	84.75
0.547	84.85
0.55	85.05
0.553	85.06
0.556	85.2
0.559	85.18
0.562	85.71
0.565	85.79
0.568	85.97
0.571	85.87
0.574	85.79
0.577	85.91
0.58	85.88
0.583	86.02
0.586	86.16
0.589	86.14
0.592	86.27
0.595	86.44
0.598	86.42
0.601	86.46
0.604	86.66
0.607	86.73
0.61	86.73
0.613	86.67
0.616	86.63
0.619	86.52
0.622	86.74
0.625	86.74
0.628	86.92
0.631	86.82
0.634	86.79
0.637	86.79
0.64	86.97
0.643	87.15
0.646	87.07
0.649	87.03
0.652	87.31
0.655	87.25
0.658	87.19
0.661	87.47
0.664	87.43
0.667	87.48
0.67	87.43
0.673	87.46
0.676	87.37
0.679	87.65
0.682	87.78
0.685	87.59
0.688	87.6
0.691	87.83
0.694	87.71
0.697	87.75
0.7	88.02
0.703	87.87
0.706	87.95
0.709	88
0.712	87.89
0.715	88.09
0.718	88.06
0.721	88.12
0.724	88.05
0.727	88.18
0.73	88.18
0.733	88.12
0.736	88.11
0.739	88.18
0.742	87.96
0.745	88.12
0.748	88.13
0.751	88.25
0.754	88.23
0.757	88.13
0.76	88.08
0.763	88.24
0.766	88.43
0.769	88.25
0.772	88.36
0.775	88.37
0.778	88.37
0.781	88.63
0.784	88.6
0.787	88.65
0.79	88.59
0.793	88.49
0.796	88.43
0.799	88.71
0.808	89.16
0.82	89.13
0.832	89.14
0.844	89.14
0.856	89
0.868	89.11
0.88	88.94
0.892	88.88
0.904	88.94
0.916	88.63
0.928	88.6
0.94	88.34
0.952	87.69
0.964	87.2
0.976	87.15
0.988	87.29
1	87.57
1.012	87.93
1.024	88.06
1.036	88.28
1.048	88.23
1.06	88.41
1.072	88.33
1.084	88.41
1.096	88.32
1.108	88.26
1.12	88.15
1.132	87.7
1.144	86.35
1.156	84.99
1.168	84.77
1.18	85.29
1.192	85.3
1.204	85.72
1.216	85.82
1.228	85.91
1.24	86.11
1.252	86.2
1.264	86.29
1.276	86.18
1.288	86.09
1.3	85.54
1.312	84.71
1.324	83.58
1.336	82.35
1.348	81.2
1.36	80.1
1.372	78.63
1.384	75.55
1.396	70.42
1.408	64.36
1.42	60.72
1.432	60.47
1.444	61.84
1.456	63.07
1.468	63.91
1.48	65.89
1.492	67.96
1.504	69.67
1.516	71.13
1.528	72.03
1.54	73.03
1.552	73.6
1.564	74.24
1.576	74.73
1.588	75.09
1.6	75.59
1.612	75.83
1.624	76.21
1.636	76.37
1.648	76.54
1.66	76.86
1.672	76.84
1.684	76.73
1.696	76.51
1.708	75.95
1.72	75.4
1.732	74.57
1.744	73.89
1.756	73.15
1.768	72.77
1.78	72.27
1.792	72.12
1.804	71.95
1.816	71.81
1.828	71.65
1.84	70.84
1.852	69.28
1.864	65.99
1.876	59.9
1.888	51.11
1.9	40.74
1.912	34.71
1.924	34.23
1.936	36.52
1.948	39.25
1.96	41.37
1.972	43.55
1.984	45.91
1.996	48.59
2.008	50.95
2.02	53.16
2.032	54.87
2.044	56.15
2.056	57.31
2.068	58.19
2.08	59.12
2.092	60
2.104	60.65
2.116	61.41
2.128	61.87
2.14	62.18
2.152	62.44
2.164	62.59
2.176	62.71
2.188	62.99
2.2	63.03
2.212	63.04
2.224	62.98
2.236	62.96
2.248	62.66
2.26	62.13
2.272	61.49
2.284	60.49
2.296	59.21
2.308	57.52
2.32	56.02
2.332	54.31
2.344	52.26
2.356	50.02
2.368	47.53
2.38	45.08
2.392	42.66
2.404	40.37
2.416	38.54
2.428	36.83
2.44	35.45
2.452	34.19
2.464	33.15
2.476	32.15
2.488	31.24
2.5	30.57
