Name: Quartz SiO_2
Type: Mineral
Class: Silicates
Subclass: Tectosilicates
Particle Size: 45-125um
Sample No.: TS-1D
Owner: JPL
Origin: USA, Coloradi, Buffalo
Description: Milky quartz.
Measurement: Hemispherical reflectance
X Units: Wavelength (micrometers)
Y Units: Reflectance (percent)
wavelength	value
15.385	6.8633
15.116	6.2039
14.856	5.7568
14.605	4.565
14.362	3.8104
14.128	3.7907
13.9	4.7494
13.68	5.323
13.467	5.5581
13.26	5.5383
13.06	6.6504
12.866	11.1671
12.677	8.6714
12.494	10.7536
12.316	1.1291
12.143	1.7619
11.974	2.9425
11.811	4.0674
11.651	4.7656
11.496	5.3133
11.345	5.8505
11.198	5.8042
11.055	6.3334
10.915	6.804
10.779	6.5888
10.647	6.6995
10.517	6.8424
10.39	7.1927
10.267	7.5149
10.146	8.1327
10.029	8.8381
9.914	9.8882
9.801	11.2228
9.691	13.3182
9.584	16.2574
9.479	21.7848
9.376	36.9256
9.275	52.0152
9.177	55.0881
9.08	56.2522
8.986	56.3084
8.893	55.1236
8.803	51.8982
8.714	47.2126
8.627	29.6114
8.542	47.9628
8.458	49.5838
8.376	48.2398
8.296	47.2645
8.217	45.6459
8.139	36.6175
8.063	23.2336
7.989	14.5557
7.916	8.0105
7.844	4.4012
7.773	2.5859
7.704	1.4745
7.636	0.7031
7.569	0.379
7.503	0.068
7.439	0
7.375	0.0323
7.313	0.1833
7.252	0.0745
7.191	0.2865
7.132	0.3543
7.073	0.4843
7.016	0.742
6.96	0.8753
6.904	1.1695
6.849	1.2284
6.795	1.2224
6.742	0.972
6.69	1.0409
6.639	1.4003
6.588	1.2254
6.538	1.1351
6.489	2.5091
6.441	3.5917
6.393	3.3118
6.346	2.3825
6.3	1.6113
6.254	1.2367
6.209	1.1449
6.165	1.357
6.121	2.2592
6.078	3.3266
6.036	3.3779
5.994	2.9749
5.953	2.144
5.912	2.4304
5.872	3.5397
5.832	4.9546
5.793	6.394
5.755	7.8752
5.716	8.931
5.679	7.3903
5.642	4.1814
5.605	2.7491
5.569	2.5354
5.533	3.1187
5.498	4.2496
5.463	5.3712
5.429	4.7227
5.395	2.3996
5.362	1.6604
5.329	1.5437
5.296	1.7107
5.264	2.1089
5.232	3.5867
5.2	5.2624
5.169	5.2344
5.139	4.7596
5.108	4.7588
5.078	3.917
5.049	3.6652
5.019	3.5157
4.99	3.6988
4.962	5.4485
4.933	7.3308
4.905	11.5245
4.878	21.057
4.85	28.2212
4.823	33.2222
4.796	37.0113
4.77	40.2367
4.744	42.4467
4.718	42.988
4.692	37.7508
4.667	39.023
4.642	45.3939
4.617	50.4522
4.592	52.3339
4.568	52.2029
4.544	48.4172
4.52	41.2003
4.497	33.3408
4.474	31.0049
4.45	32.644
4.428	35.0979
4.405	38.389
4.383	42.9019
4.361	47.7835
4.339	50.8381
4.317	50.9688
4.296	49.3425
4.274	49.5417
4.253	52.0593
4.233	51.992
4.212	53.2966
4.191	53.7604
4.171	55.7305
4.151	57.2454
4.131	58.7882
4.112	60.8782
4.092	63.0724
4.073	64.5949
4.054	65.1402
4.035	64.7799
4.016	64.3772
3.998	64.6467
3.979	65.5889
3.961	66.8988
3.943	68.4752
3.925	69.3136
3.907	69.2595
3.89	68.3585
3.872	67.2878
3.855	66.8169
3.838	66.9155
3.821	67.6879
3.804	68.225
3.787	67.9366
3.771	67.0544
3.754	66.1562
3.738	65.9133
3.722	66.6798
3.706	68.3116
3.69	70.4633
3.675	72.2543
3.659	73.7052
3.644	74.4966
3.628	74.6921
3.613	74.8032
3.598	75.1213
3.583	75.5891
3.568	76.2075
3.554	76.9713
3.539	77.5908
3.525	78.3027
3.51	78.529
3.496	78.661
3.482	79.3868
3.468	79.6555
3.454	79.7842
3.441	79.5479
3.427	78.7354
3.413	78.1098
3.4	78.6454
3.387	78.6861
3.373	78.5266
3.36	79.1063
3.347	79.5098
3.334	79.4307
3.321	79.4001
3.309	78.9525
3.296	78.7081
3.284	78.1536
3.271	77.7577
3.259	77.477
3.247	77.1736
3.234	76.7618
3.222	76.339
3.21	75.8072
3.199	75.4237
3.187	74.8059
3.175	74.1877
3.163	73.7104
3.152	72.9838
3.14	71.794
3.129	70.9019
3.118	70.759
3.107	70.7514
3.095	70.7771
3.084	70.5833
3.073	70.1577
3.063	69.4865
3.052	68.5942
3.041	67.8165
3.03	67.3663
3.02	67.3347
3.009	67.5484
2.999	67.6526
2.988	67.5954
2.978	67.3813
2.968	65.9028
2.958	64.9652
2.948	66.276
2.938	66.8721
2.928	67.2609
2.918	67.2424
2.908	67.9281
2.898	68.6041
2.888	69.2201
2.879	69.4429
2.869	70.183
2.86	70.9645
2.85	71.5996
2.841	72.1443
2.832	72.7369
2.822	73.4142
2.813	74.1756
2.804	74.9105
2.795	74.9528
2.786	75.531
2.777	75.9001
2.768	76.7324
2.759	76.8266
2.751	78.138
2.742	79.9183
2.733	80.7299
2.725	83.0137
2.716	83.5353
2.707	84.4676
2.699	84.9362
2.691	85.4578
2.682	85.9952
2.674	86.4512
2.666	87.5838
2.658	86.5281
2.649	86.446
2.641	86.6227
2.633	86.8431
2.625	86.6682
2.617	87.3109
2.609	86.8525
2.602	86.7904
2.594	87.6457
2.586	86.9507
2.578	86.7628
2.571	86.911
2.563	87.1811
2.555	86.6161
2.548	86.6413
2.54	86.4992
2.533	86.6856
2.525	86.6313
2.518	86.6648
2.511	86.6265
2.504	86.5546
2.496	86.5879
2.489	86.5935
2.482	86.6684
2.475	86.6524
2.468	86.6126
2.461	86.6142
2.454	86.6795
2.447	86.7339
2.44	86.6895
2.433	86.7598
2.426	86.6727
2.419	86.776
2.413	86.6377
2.406	86.7844
2.399	86.6822
2.393	86.8092
2.386	86.7395
2.379	86.7223
2.373	86.6933
2.366	86.9035
2.36	86.829
2.354	86.717
2.347	86.7843
2.341	86.827
2.334	86.8226
2.328	86.7894
2.322	86.7794
2.316	86.9096
2.309	86.7835
2.303	86.866
2.297	86.6476
2.291	86.7806
2.285	86.94
2.279	86.8074
2.273	86.8533
2.267	86.8628
2.261	86.9273
2.255	86.7924
2.249	86.7471
2.244	86.8515
2.238	86.8473
2.232	86.7974
2.226	86.7276
2.22	86.7595
2.215	86.6019
2.209	86.693
2.204	86.6648
2.198	86.7322
2.192	86.6155
2.187	86.7229
2.181	86.535
2.176	86.7034
2.17	86.6399
2.165	86.6921
2.159	86.605
2.154	86.8717
2.149	86.8417
2.143	86.7694
2.138	86.7535
2.133	86.876
2.128	86.7381
2.122	86.731
2.117	86.7229
2.112	86.7841
2.107	86.792
2.102	86.8388
2.097	86.9236
2.091	86.6753
2.086	86.6384
2.081	86.6255
2.076	87.0746
2.071	86.8309
2.066	86.7189
2.062	86.7645
2.057	86.7193
2.052	86.6962
2.047	86.6681
2.042	86.7603
2.037	86.7855
2.032	86.6163
2.028	86.791
2.023	86.6117
2.018	86.547
2.014	86.3589
2.009	86.5671
2.004	86.7238
