Name: Corrensite (Mg,Fe)_9(Si,Al)_8O_20(OH)_10._xH_2O
Type: Mineral
Class: Silicates
Subclass: Phyllosilicates
Particle Size: 125-500um
Sample No.: PS-10A
Owner: JPL
Origin: USA, Washington, Packwood.
Measurement: Hemispherical reflectance
X Units: Wavelength (micrometers)
Y Units: Reflectance (percent)
wavelength	value
2.5	23.5446
2.494	23.8103
2.488	24.0931
2.482	24.5352
2.476	24.7411
2.47	25.3481
2.464	25.711
2.458	26.1274
2.452	26.4706
2.446	26.9185
2.44	27.3556
2.434	27.6618
2.428	27.9571
2.422	28.2489
2.416	28.6166
2.41	28.7896
2.404	28.831
2.398	29.0189
2.392	29.2912
2.386	29.4588
2.38	29.5017
2.374	29.544
2.368	29.4555
2.362	29.3716
2.356	29.3532
2.35	29.4458
2.344	29.6881
2.338	29.9534
2.332	30.2324
2.326	30.4769
2.32	30.812
2.314	31.0545
2.308	31.2248
2.302	31.4186
2.296	31.5759
2.29	32.007
2.284	32.5269
2.278	33.1302
2.272	33.7537
2.266	34.2929
2.26	34.8159
2.254	35.3408
2.248	36.0052
2.242	36.9126
2.236	37.9758
2.23	38.9823
2.224	39.6076
2.218	40.1973
2.212	40.5825
2.206	40.8032
2.2	41.0424
2.194	41.5379
2.188	41.8235
2.182	42.3679
2.176	42.758
2.17	42.9738
2.164	43.2927
2.158	43.5363
2.152	43.6314
2.146	43.6578
2.14	43.7062
2.134	43.6155
2.128	43.4545
2.122	43.1956
2.116	43.0029
2.11	42.7532
2.104	42.5115
2.098	42.2677
2.092	42.0926
2.086	41.9659
2.08	41.6886
2.074	41.4984
2.068	41.1418
2.062	40.817
2.056	40.535
2.05	40.0907
2.044	39.7129
2.038	39.2778
2.032	38.8246
2.026	38.2643
2.02	37.8257
2.014	37.2887
2.008	36.7962
2.002	36.1466
1.996	35.6291
1.99	35.0728
1.984	34.6099
1.978	34.0308
1.972	33.5114
1.966	33.0312
1.96	32.5826
1.954	32.0928
1.948	31.5952
1.942	31.1374
1.936	30.498
1.93	29.9735
1.924	29.2956
1.918	29.1788
1.912	29.5612
1.906	30.9371
1.9	33.6638
1.894	36.6858
1.888	39.2412
1.882	41.1984
1.876	42.4826
1.87	43.6365
1.864	44.1993
1.858	44.5534
1.852	44.8508
1.846	45.0336
1.84	45.054
1.834	45.0925
1.828	45.0805
1.822	44.9879
1.816	44.9188
1.81	44.8994
1.804	44.7719
1.798	44.708
1.792	44.5711
1.786	44.4738
1.78	44.3923
1.774	44.371
1.768	44.2495
1.762	44.1427
1.756	44.2131
1.75	44.0704
1.744	44.0269
1.738	43.8983
1.732	43.8434
1.726	43.7245
1.72	43.5425
1.714	43.4651
1.708	43.2807
1.702	43.0967
1.696	42.9982
1.69	42.8623
1.684	42.6582
1.678	42.4566
1.672	42.2691
1.666	42.1128
1.66	41.8807
1.654	41.7201
1.648	41.4763
1.642	41.3529
1.636	41.0692
1.63	40.8361
1.624	40.6131
1.618	40.3867
1.612	40.1958
1.606	40.0566
1.6	39.8053
1.594	39.5096
1.588	39.3555
1.582	39.1417
1.576	38.7967
1.57	38.5996
1.564	38.3026
1.558	38.1529
1.552	37.8572
1.546	37.6297
1.54	37.406
1.534	37.1448
1.528	36.7604
1.522	36.5401
1.516	36.2191
1.51	35.8771
1.504	35.6325
1.498	35.311
1.492	34.9715
1.486	34.5867
1.48	34.1912
1.474	33.7777
1.468	33.4204
1.462	33.0913
1.456	32.6553
1.45	32.2472
1.444	31.8267
1.438	31.4282
1.432	31.1639
1.426	30.9241
1.42	30.638
1.414	30.2414
1.408	30.2295
1.402	30.2023
1.396	30.9334
1.39	31.6679
1.384	32.1643
1.378	32.1677
1.372	31.9109
1.366	31.7857
1.36	31.5163
1.354	31.2691
1.348	30.944
1.342	30.7032
1.336	30.3649
1.33	30.2293
1.324	29.9407
1.318	29.6293
1.312	29.3515
1.306	29.0688
1.3	28.8597
1.294	28.4978
1.288	28.2441
1.282	28.0184
1.276	27.7359
1.27	27.4346
1.264	27.2017
1.258	26.8808
1.252	26.6436
1.246	26.3844
1.24	26.1314
1.234	25.8186
1.228	25.5726
1.222	25.3258
1.216	25.0534
1.21	24.7929
1.204	24.6015
1.198	24.3003
1.192	24.0863
1.186	23.872
1.18	23.6408
1.174	23.4128
1.168	23.12
1.162	22.9607
1.156	22.8362
1.15	22.5948
1.144	22.4561
1.138	22.2892
1.132	22.1536
1.126	22.0528
1.12	21.881
1.114	21.806
1.108	21.6235
1.102	21.5255
1.096	21.4207
1.09	21.3173
1.084	21.255
1.078	21.202
1.072	21.0371
1.066	21.0704
1.06	21.035
1.054	20.9883
1.048	20.945
1.042	20.9253
1.036	20.8827
1.03	20.7976
1.024	20.8719
1.018	20.8553
1.012	20.7583
1.006	20.8266
1	20.7821
0.994	20.7281
0.988	20.6502
0.982	20.591
0.976	20.5725
0.97	20.4549
0.964	20.3995
0.958	20.3473
0.952	20.2306
0.946	20.1552
0.94	20.0688
0.934	20.0289
0.928	19.8716
0.922	19.8244
0.916	19.6805
0.91	19.6629
0.904	19.6888
0.898	19.6445
0.892	19.597
0.886	19.623
0.88	19.6495
0.874	19.738
0.868	19.7772
0.862	19.8804
0.856	20.3595
0.85	20.4192
0.844	20.482
0.838	20.5454
0.832	20.6074
0.826	20.6752
0.82	20.723
0.814	20.7271
0.808	20.7372
0.802	20.689
0.796	20.587
0.79	20.4727
0.784	20.3312
0.778	20.1379
0.772	19.9394
0.766	19.7306
0.76	19.5019
0.754	19.274
0.748	19.0809
0.742	18.8937
0.736	18.6828
0.73	18.5013
0.724	18.3264
0.718	18.168
0.712	18.0321
0.706	17.8911
0.7	17.7759
0.694	17.6773
0.688	17.5732
0.682	17.4851
0.676	17.3839
0.67	17.3044
0.664	17.2044
0.658	17.1123
0.652	17.0251
0.646	16.9227
0.64	16.8143
0.634	16.7122
0.628	16.6008
0.622	16.4864
0.616	16.3716
0.61	16.2532
0.604	16.1348
0.598	16.0216
0.592	15.9139
0.586	15.7869
0.58	15.6597
0.574	15.5307
0.568	15.3894
0.562	15.2404
0.556	15.0445
0.55	14.8335
0.544	14.5845
0.538	14.2902
0.532	13.943
0.526	13.549
0.52	13.1104
0.514	12.6247
0.508	12.1054
0.502	11.5862
0.496	11.1065
0.49	10.6907
0.484	10.3533
0.478	10.1206
0.472	9.93524
0.466	9.78981
0.46	9.67599
0.454	9.51323
0.448	9.26722
0.442	8.90908
0.436	8.46094
0.43	8.02428
0.424	7.66404
0.418	7.39804
0.412	7.20266
0.406	7.03614
0.4	6.86857
