Name: Strontianite SrCO_3
Type: Mineral
Class: Carbonates
Particle Size: 0-45um
Sample No.: C-1A
Owner: JPL
Origin: Germany, Westphalia, Hamm.
Measurement: Hemispherical reflectance
X Units: Wavelength (micrometers)
Y Units: Reflectance (percent)
wavelength	value
2.5	76.1732
2.494	76.3815
2.488	76.894
2.482	77.5177
2.476	78.4432
2.47	79.3807
2.464	80.3173
2.458	81.1576
2.452	81.8514
2.446	82.4843
2.44	82.7573
2.434	83.0342
2.428	83.4275
2.422	83.6158
2.416	83.8015
2.41	83.9522
2.404	83.9795
2.398	83.978
2.392	83.8362
2.386	83.4137
2.38	82.714
2.374	81.6975
2.368	80.6134
2.362	79.3622
2.356	78.4237
2.35	77.7152
2.344	77.4956
2.338	77.8495
2.332	78.6159
2.326	79.3832
2.32	80.1658
2.314	80.5988
2.308	81.0872
2.302	81.5982
2.296	81.8421
2.29	82.2171
2.284	82.6096
2.278	82.9993
2.272	83.369
2.266	83.756
2.26	84.0883
2.254	84.505
2.248	84.6919
2.242	85.0284
2.236	85.2582
2.23	85.5393
2.224	85.7629
2.218	85.9442
2.212	86.2033
2.206	86.4359
2.2	86.5264
2.194	86.5747
2.188	86.6146
2.182	86.5423
2.176	86.6888
2.17	86.8759
2.164	87.2924
2.158	87.7299
2.152	87.8955
2.146	88.1303
2.14	88.1572
2.134	88.1048
2.128	88.0342
2.122	87.7608
2.116	87.4685
2.11	87.2882
2.104	87.0291
2.098	86.8767
2.092	86.9509
2.086	87.0243
2.08	87.1232
2.074	87.1768
2.068	87.2275
2.062	87.3229
2.056	87.3548
2.05	87.4139
2.044	87.4563
2.038	87.4464
2.032	87.2725
2.026	87.0353
2.02	86.6781
2.014	86.5489
2.008	86.8051
2.002	86.8928
1.996	87.0005
1.99	86.9688
1.984	86.938
1.978	86.934
1.972	86.874
1.966	86.8322
1.96	86.8557
1.954	86.8522
1.948	86.8363
1.942	86.918
1.936	86.9164
1.93	86.9702
1.924	86.9577
1.918	86.987
1.912	87.0834
1.906	87.1015
1.9	87.1576
1.894	87.3008
1.888	87.2417
1.882	87.518
1.876	87.7172
1.87	87.9501
1.864	88.0784
1.858	88.145
1.852	88.2385
1.846	88.2564
1.84	88.3062
1.834	88.4541
1.828	88.4502
1.822	88.5991
1.816	88.5464
1.81	88.6176
1.804	88.6287
1.798	88.6411
1.792	88.6126
1.786	88.5561
1.78	88.5361
1.774	88.4836
1.768	88.4885
1.762	88.5093
1.756	88.5312
1.75	88.5173
1.744	88.5202
1.738	88.5261
1.732	88.6402
1.726	88.6136
1.72	88.6087
1.714	88.6946
1.708	88.6981
1.702	88.6414
1.696	88.6732
1.69	88.6298
1.684	88.6801
1.678	88.6605
1.672	88.6209
1.666	88.6023
1.66	88.7171
1.654	88.5161
1.648	88.6725
1.642	88.6632
1.636	88.6819
1.63	88.6226
1.624	88.6428
1.618	88.7124
1.612	88.6608
1.606	88.6065
1.6	88.7274
1.594	88.642
1.588	88.6092
1.582	88.5948
1.576	88.6069
1.57	88.6986
1.564	88.615
1.558	88.5937
1.552	88.5712
1.546	88.5788
1.54	88.5999
1.534	88.5161
1.528	88.5055
1.522	88.5381
1.516	88.4787
1.51	88.4561
1.504	88.3748
1.498	88.4494
1.492	88.38
1.486	88.3778
1.48	88.2911
1.474	88.2695
1.468	88.3025
1.462	88.2803
1.456	88.3098
1.45	88.2017
1.444	88.1907
1.438	88.221
1.432	88.186
1.426	88.1316
1.42	88.0765
1.414	88.0518
1.408	88.1197
1.402	88.16
1.396	88.2354
1.39	88.2385
1.384	88.236
1.378	88.2923
1.372	88.2329
1.366	88.2512
1.36	88.2887
1.354	88.1015
1.348	88.2013
1.342	88.1821
1.336	88.1179
1.33	88.159
1.324	88.1079
1.318	88.1135
1.312	88.0451
1.306	88.052
1.3	87.9161
1.294	88.0002
1.288	87.9598
1.282	87.9411
1.276	87.9347
1.27	87.902
1.264	87.8698
1.258	87.8462
1.252	87.8621
1.246	87.8267
1.24	87.74
1.234	87.7314
1.228	87.7687
1.222	87.7077
1.216	87.6704
1.21	87.6686
1.204	87.6046
1.198	87.5678
1.192	87.5617
1.186	87.5262
1.18	87.5869
1.174	87.5643
1.168	87.5382
1.162	87.4609
1.156	87.4658
1.15	87.498
1.144	87.4265
1.138	87.4574
1.132	87.3333
1.126	87.3123
1.12	87.3297
1.114	87.369
1.108	87.2922
1.102	87.2751
1.096	87.2897
1.09	87.1995
1.084	87.2327
1.078	87.2329
1.072	87.1694
1.066	87.1196
1.06	87.2286
1.054	87.2193
1.048	87.1741
1.042	87.144
1.036	87.1957
1.03	87.0883
1.024	87.1215
1.018	87.1386
1.012	87.087
1.006	87.0503
1	87.0844
0.994	87.0265
0.988	87.0787
0.982	86.9257
0.976	86.9787
0.97	86.926
0.964	86.866
0.958	86.9484
0.952	86.9163
0.946	86.8938
0.94	86.8446
0.934	86.8051
0.928	86.815
0.922	86.7966
0.916	86.8653
0.91	86.7529
0.904	86.715
0.898	86.7617
0.892	86.7344
0.886	86.695
0.88	86.7174
0.874	86.6472
0.868	86.6327
0.862	86.6068
0.856	86.6075
0.85	86.5793
0.844	86.6656
0.838	86.5839
0.832	86.5691
0.826	86.5262
0.82	86.5894
0.814	86.5637
0.808	86.4426
0.802	86.4694
0.796	86.3088
0.79	86.2541
0.784	86.2722
0.778	86.1403
0.772	86.1071
0.766	86.0599
0.76	85.9854
0.754	85.9787
0.748	85.9251
0.742	85.8154
0.736	85.7755
0.73	85.7294
0.724	85.6976
0.718	85.6145
0.712	85.5788
0.706	85.4924
0.7	85.4298
0.694	85.3866
0.688	85.2963
0.682	85.2485
0.676	85.2041
0.67	85.0914
0.664	85.0242
0.658	84.9474
0.652	84.8582
0.646	84.7769
0.64	84.6904
0.634	84.6197
0.628	84.5084
0.622	84.4306
0.616	84.326
0.61	84.2286
0.604	84.1238
0.598	84.049
0.592	83.974
0.586	83.8613
0.58	83.7223
0.574	83.5985
0.568	83.4605
0.562	83.3263
0.556	83.1331
0.55	82.9781
0.544	82.7784
0.538	82.6176
0.532	82.4052
0.526	82.1765
0.52	82.0004
0.514	81.7491
0.508	81.5221
0.502	81.2915
0.496	81.0315
0.49	80.7612
0.484	80.4871
0.478	80.2247
0.472	80.0006
0.466	79.7386
0.46	79.4708
0.454	79.1575
0.448	78.8577
0.442	78.4945
0.436	78.1807
0.43	77.8338
0.424	77.4956
0.418	77.1414
0.412	76.7759
0.406	76.3951
0.4	75.9658
