Name: Atacamite Cu_2Cl(OH)_3
Type: Mineral
Class: Halides
Particle Size: 125-500um
Sample No.: H-4A
Owner: JPL
Origin: Chile, Atacama, Copiapo.
Measurement: Hemispherical reflectance
X Units: Wavelength (micrometers)
Y Units: Reflectance (percent)
wavelength	value
2.5	10.1163
2.494	10.2302
2.488	9.85966
2.482	9.57695
2.476	8.95747
2.47	8.42082
2.464	8.17863
2.458	8.89978
2.452	10.047
2.446	11.1289
2.44	11.9642
2.434	12.6543
2.428	13.0817
2.422	13.3368
2.416	13.2245
2.41	13.2382
2.404	13.114
2.398	13.0903
2.392	13.2128
2.386	13.4035
2.38	13.2992
2.374	13.5779
2.368	13.7579
2.362	14.0731
2.356	14.3906
2.35	14.3625
2.344	14.2477
2.338	14.2661
2.332	14.5834
2.326	15.1799
2.32	15.6324
2.314	15.8526
2.308	15.9805
2.302	16.12
2.296	16.3677
2.29	16.3964
2.284	16.2574
2.278	15.9918
2.272	15.9678
2.266	15.8749
2.26	15.7518
2.254	15.8924
2.248	16.586
2.242	17.9057
2.236	19.6182
2.23	21.1808
2.224	22.2764
2.218	22.5762
2.212	22.8306
2.206	22.9552
2.2	23.3722
2.194	23.8432
2.188	24.1054
2.182	24.4257
2.176	24.2585
2.17	23.6092
2.164	22.5013
2.158	21.9124
2.152	22.8255
2.146	24.6915
2.14	26.3357
2.134	27.3571
2.128	28.0532
2.122	28.2172
2.116	28.2974
2.11	27.8848
2.104	27.6973
2.098	27.6356
2.092	27.6559
2.086	27.6802
2.08	27.621
2.074	27.4434
2.068	27.1579
2.062	26.8886
2.056	26.5254
2.05	26.0789
2.044	25.4579
2.038	24.7081
2.032	23.7032
2.026	22.845
2.02	22.1213
2.014	21.1415
2.008	19.7108
2.002	17.906
1.996	16.2223
1.99	14.9728
1.984	14.8616
1.978	15.0812
1.972	15.0661
1.966	14.8685
1.96	14.456
1.954	14.0872
1.948	13.8344
1.942	13.5989
1.936	13.4103
1.93	13.2514
1.924	13.0214
1.918	12.7029
1.912	12.7228
1.906	13.0864
1.9	14.6688
1.894	17.5625
1.888	21.1021
1.882	24.6015
1.876	27.6864
1.87	30.6366
1.864	31.7245
1.858	30.833
1.852	31.399
1.846	33.8599
1.84	35.3028
1.834	35.9167
1.828	36.1136
1.822	36.0401
1.816	35.959
1.81	35.7818
1.804	35.7584
1.798	35.7059
1.792	35.646
1.786	35.5018
1.78	35.4396
1.774	35.2994
1.768	35.1858
1.762	35.0458
1.756	35.0296
1.75	35.0902
1.744	35.0844
1.738	34.8818
1.732	34.5524
1.726	34.4305
1.72	34.411
1.714	34.2695
1.708	34.1084
1.702	33.7667
1.696	33.3794
1.69	33.2031
1.684	33.0586
1.678	33.0948
1.672	33.0863
1.666	32.8927
1.66	32.5833
1.654	32.4258
1.648	32.1225
1.642	31.8076
1.636	31.3422
1.63	31.0695
1.624	30.8981
1.618	30.4727
1.612	30.0984
1.606	29.5958
1.6	29.1446
1.594	28.6064
1.588	28.5043
1.582	28.2294
1.576	27.9208
1.57	27.363
1.564	26.3141
1.558	25.2396
1.552	25.8727
1.546	25.9
1.54	25.4794
1.534	25.0049
1.528	24.3522
1.522	24.1236
1.516	23.5959
1.51	22.7746
1.504	22.5685
1.498	21.7767
1.492	20.8767
1.486	21.0268
1.48	20.5749
1.474	19.2759
1.468	18.1079
1.462	19.1188
1.456	18.9944
1.45	18.8566
1.444	18.5971
1.438	18.254
1.432	17.749
1.426	17.0871
1.42	16.1458
1.414	14.9821
1.408	15.9797
1.402	17.7531
1.396	18.8697
1.39	19.6994
1.384	19.9921
1.378	20.2025
1.372	20.2346
1.366	20.1857
1.36	20.0128
1.354	19.8172
1.348	19.6563
1.342	19.2785
1.336	19.2307
1.33	18.9886
1.324	18.7469
1.318	18.5149
1.312	18.1945
1.306	18.0152
1.3	17.7716
1.294	17.5352
1.288	17.3492
1.282	17.1196
1.276	16.6862
1.27	16.4045
1.264	16.0937
1.258	15.8463
1.252	15.5888
1.246	15.3287
1.24	15.0527
1.234	14.7539
1.228	14.51
1.222	14.2738
1.216	13.9771
1.21	13.72
1.204	13.4354
1.198	13.2449
1.192	12.8905
1.186	12.6439
1.18	12.4191
1.174	12.1508
1.168	11.8757
1.162	11.6646
1.156	11.4612
1.15	11.1232
1.144	10.9511
1.138	10.7227
1.132	10.4684
1.126	10.2532
1.12	10.0726
1.114	9.82679
1.108	9.57339
1.102	9.33233
1.096	9.08608
1.09	8.91956
1.084	8.66569
1.078	8.46586
1.072	8.19579
1.066	8.01365
1.06	7.67837
1.054	7.63862
1.048	7.21226
1.042	7.15883
1.036	6.90112
1.03	6.8116
1.024	6.58296
1.018	6.41088
1.012	6.18857
1.006	5.95669
1	5.81781
0.994	5.59696
0.988	5.47172
0.982	5.2171
0.976	5.1254
0.97	4.93261
0.964	4.83272
0.958	4.71021
0.952	4.57786
0.946	4.41917
0.94	4.26131
0.934	4.14352
0.928	4.02395
0.922	3.89691
0.916	3.82842
0.91	3.72907
0.904	3.66808
0.898	3.66028
0.892	3.54533
0.886	3.42312
0.88	3.40155
0.874	3.37868
0.868	3.28772
0.862	3.23941
0.856	3.49528
0.85	3.43173
0.844	3.39734
0.838	3.36329
0.832	3.321
0.826	3.29294
0.82	3.25627
0.814	3.21948
0.808	3.18999
0.802	3.16007
0.796	3.12616
0.79	3.09775
0.784	3.07341
0.778	3.04503
0.772	3.02118
0.766	3.00778
0.76	2.98554
0.754	2.97578
0.748	2.96371
0.742	2.95831
0.736	2.95548
0.73	2.9597
0.724	2.96869
0.718	2.98102
0.712	2.99985
0.706	3.02834
0.7	3.06357
0.694	3.10378
0.688	3.16094
0.682	3.22625
0.676	3.30654
0.67	3.40011
0.664	3.51171
0.658	3.64547
0.652	3.80198
0.646	3.98528
0.64	4.20366
0.634	4.45026
0.628	4.75229
0.622	5.11102
0.616	5.51784
0.61	6.00336
0.604	6.55681
0.598	7.19144
0.592	7.90667
0.586	8.67249
0.58	9.52019
0.574	10.4178
0.568	11.3473
0.562	12.2731
0.556	13.202
0.55	14.0404
0.544	14.778
0.538	15.399
0.532	15.8726
0.526	16.1986
0.52	16.366
0.514	16.3966
0.508	16.3096
0.502	16.1138
0.496	15.8402
0.49	15.4855
0.484	15.0904
0.478	14.6067
0.472	14.0423
0.466	13.4627
0.46	12.9002
0.454	12.4522
0.448	12.0367
0.442	11.5627
0.436	11.0793
0.43	10.6216
0.424	10.1369
0.418	9.6043
0.412	9.13041
0.406	8.62147
0.4	8.07249
