Name: Gahnite ZnAl_2O_4
Type: Mineral
Class: Oxides
Particle Size: 125-500um
Sample No.: O-11A
Owner: JPL
Origin: Nigeria, Kaduna, Jemaa, Godogodo Mine.
Measurement: Hemispherical reflectance
X Units: Wavelength (micrometers)
Y Units: Reflectance (percent)
wavelength	value
2.5	2.9484
2.494	3.13276
2.488	3.09398
2.482	3.1765
2.476	3.06071
2.47	3.11332
2.464	3.14529
2.458	3.11612
2.452	3.28274
2.446	3.30638
2.44	3.24547
2.434	3.23649
2.428	3.1917
2.422	3.18642
2.416	3.24285
2.41	3.27275
2.404	3.19703
2.398	3.19413
2.392	3.21587
2.386	3.26643
2.38	3.34981
2.374	3.23781
2.368	3.29902
2.362	3.26391
2.356	3.28226
2.35	3.26809
2.344	3.28921
2.338	3.31427
2.332	3.35445
2.326	3.36978
2.32	3.27252
2.314	3.25375
2.308	3.31099
2.302	3.2796
2.296	3.3662
2.29	3.26389
2.284	3.39047
2.278	3.27513
2.272	3.27323
2.266	3.34912
2.26	3.28379
2.254	3.30649
2.248	3.31362
2.242	3.25304
2.236	3.34805
2.23	3.27198
2.224	3.30382
2.218	3.40393
2.212	3.42677
2.206	3.28816
2.2	3.29997
2.194	3.32428
2.188	3.28572
2.182	3.33427
2.176	3.31343
2.17	3.34186
2.164	3.37053
2.158	3.29781
2.152	3.29889
2.146	3.28504
2.14	3.34361
2.134	3.28446
2.128	3.38755
2.122	3.34308
2.116	3.30198
2.11	3.26296
2.104	3.22837
2.098	3.30417
2.092	3.23093
2.086	3.28044
2.08	3.28891
2.074	3.25415
2.068	3.28868
2.062	3.34651
2.056	3.27026
2.05	3.31943
2.044	3.23523
2.038	3.30832
2.032	3.30417
2.026	3.27855
2.02	3.37928
2.014	3.31683
2.008	3.26712
2.002	3.32491
1.996	3.27698
1.99	3.31076
1.984	3.29921
1.978	3.37383
1.972	3.2913
1.966	3.25902
1.96	3.32831
1.954	3.30979
1.948	3.34434
1.942	3.22942
1.936	3.29351
1.93	3.25624
1.924	3.30056
1.918	3.31542
1.912	3.3376
1.906	3.29687
1.9	3.30453
1.894	3.40442
1.888	3.32263
1.882	3.34657
1.876	3.41874
1.87	3.38886
1.864	3.46285
1.858	3.44911
1.852	3.51975
1.846	3.42605
1.84	3.49484
1.834	3.50379
1.828	3.48817
1.822	3.56811
1.816	3.53442
1.81	3.60303
1.804	3.58074
1.798	3.62866
1.792	3.70064
1.786	3.62208
1.78	3.70595
1.774	3.71931
1.768	3.72607
1.762	3.6825
1.756	3.82049
1.75	3.80509
1.744	3.86107
1.738	3.88498
1.732	3.88485
1.726	3.98231
1.72	4.0075
1.714	4.11651
1.708	4.12381
1.702	4.23442
1.696	4.26229
1.69	4.36693
1.684	4.47328
1.678	4.4566
1.672	4.62863
1.666	4.71151
1.66	4.7155
1.654	4.94857
1.648	5.16925
1.642	5.28541
1.636	5.34252
1.63	5.53244
1.624	5.66615
1.618	5.86046
1.612	6.06069
1.606	6.28264
1.6	6.55875
1.594	6.8246
1.588	7.02127
1.582	7.32524
1.576	7.6019
1.57	7.96625
1.564	8.3179
1.558	8.77333
1.552	9.14769
1.546	9.56627
1.54	10.0841
1.534	10.4786
1.528	11.0029
1.522	11.5136
1.516	11.9707
1.51	12.5012
1.504	13.077
1.498	13.6891
1.492	14.4689
1.486	15.2736
1.48	16.0273
1.474	16.8235
1.468	17.6941
1.462	18.4492
1.456	19.3019
1.45	20.193
1.444	21.0253
1.438	21.9036
1.432	22.7446
1.426	23.6599
1.42	24.7248
1.414	25.7914
1.408	26.7467
1.402	27.782
1.396	28.792
1.39	29.9074
1.384	30.9828
1.378	32.1636
1.372	33.1711
1.366	34.2148
1.36	35.2572
1.354	36.2534
1.348	37.2445
1.342	38.1257
1.336	38.9168
1.33	39.6502
1.324	40.2616
1.318	40.6953
1.312	41.1465
1.306	41.5635
1.3	41.9407
1.294	42.4373
1.288	42.9909
1.282	43.7195
1.276	44.4519
1.27	45.239
1.264	45.745
1.258	46.0878
1.252	46.2957
1.246	46.6884
1.24	47.2353
1.234	47.7801
1.228	48.1722
1.222	48.6036
1.216	49.2014
1.21	49.9854
1.204	50.7048
1.198	51.5023
1.192	52.223
1.186	53.0004
1.18	53.5677
1.174	54.1919
1.168	54.7001
1.162	55.1779
1.156	55.6759
1.15	56.0289
1.144	56.3956
1.138	56.5577
1.132	56.7756
1.126	56.9576
1.12	57.0022
1.114	57.0933
1.108	57.1268
1.102	57.0671
1.096	57
1.09	56.7766
1.084	56.4564
1.078	56.1993
1.072	55.8154
1.066	55.3806
1.06	54.8396
1.054	54.2788
1.048	53.5353
1.042	52.7379
1.036	52.152
1.03	51.3151
1.024	50.4025
1.018	49.5701
1.012	48.6204
1.006	47.6331
1	46.7664
0.994	45.8178
0.988	44.859
0.982	43.9749
0.976	43.2065
0.97	42.3936
0.964	41.7567
0.958	41.1453
0.952	40.6662
0.946	40.3593
0.94	40.04
0.934	39.8617
0.928	39.7504
0.922	39.6671
0.916	39.6286
0.91	39.5752
0.904	39.5914
0.898	39.6398
0.892	39.5208
0.886	39.5414
0.88	39.5784
0.874	39.5363
0.868	39.3405
0.862	39.3377
0.856	39.4652
0.85	39.3492
0.844	39.2587
0.838	39.108
0.832	38.9399
0.826	38.7431
0.82	38.5169
0.814	38.3046
0.808	38.0481
0.802	37.8265
0.796	37.5291
0.79	37.3019
0.784	37.0159
0.778	36.76
0.772	36.4947
0.766	36.2092
0.76	35.8858
0.754	35.5238
0.748	35.1318
0.742	34.6731
0.736	34.107
0.73	33.5036
0.724	33.0277
0.718	32.589
0.712	32.1252
0.706	31.6584
0.7	31.1693
0.694	30.6774
0.688	30.2225
0.682	29.8211
0.676	29.5196
0.67	29.3038
0.664	29.1681
0.658	29.0132
0.652	28.6687
0.646	27.9087
0.64	26.5497
0.634	25.2143
0.628	24.3032
0.622	23.8618
0.616	24.1392
0.61	24.6511
0.604	24.365
0.598	23.7177
0.592	23.0284
0.586	22.6652
0.58	22.7447
0.574	22.815
0.568	23.0792
0.562	23.4803
0.556	23.7082
0.55	24.3042
0.544	25.0637
0.538	26.2903
0.532	28.0411
0.526	29.9554
0.52	32.0047
0.514	33.798
0.508	34.9623
0.502	36.209
0.496	36.7581
0.49	36.5271
0.484	35.6055
0.478	33.4765
0.472	32.0212
0.466	30.7362
0.46	29.4984
0.454	30.6359
0.448	31.8406
0.442	31.6871
0.436	30.5429
0.43	28.7002
0.424	26.7411
0.418	24.2209
0.412	21.804
0.406	20.0257
0.4	18.7656
