Name: Borax Na_2B_4O_5(OH)_4.8H_2O
Type: Mineral
Class: Borates
Particle Size: 45-125um
Sample No.: B-6A
Owner: JPL
Wavelength Range: VNIR-SWIR
Origin: USA, California, Kern County, Boron
Measurement: Hemispherical reflectance
X Units: Wavelength (micrometers)
Y Units: Reflectance (percent)
wavelength	value
0.4	89.26
0.403	89.26
0.406	89.09
0.409	89.32
0.412	89.27
0.415	89.45
0.418	89.27
0.421	89.39
0.424	89.28
0.427	89.34
0.43	89.51
0.433	89.52
0.436	89.4
0.439	89.39
0.442	89.65
0.445	89.66
0.448	89.65
0.451	89.64
0.454	89.67
0.457	89.88
0.46	89.94
0.463	89.86
0.466	89.97
0.469	89.98
0.472	90.15
0.475	90.1
0.478	90.12
0.481	90.19
0.484	90.15
0.487	90.21
0.49	90.17
0.493	90.31
0.496	90.09
0.499	90.06
0.502	90.29
0.505	90.3
0.508	90.31
0.511	90.3
0.514	90.37
0.517	90.55
0.52	90.32
0.523	90.5
0.526	90.39
0.529	90.43
0.532	90.55
0.535	90.42
0.538	90.48
0.541	90.53
0.544	90.37
0.547	90.39
0.55	90.53
0.553	90.48
0.556	90.44
0.559	90.5
0.562	90.74
0.565	90.73
0.568	90.67
0.571	90.73
0.574	90.53
0.577	90.47
0.58	90.51
0.583	90.38
0.586	90.57
0.589	90.5
0.592	90.57
0.595	90.38
0.598	90.4
0.601	90.58
0.604	90.72
0.607	90.63
0.61	90.57
0.613	90.46
0.616	90.58
0.619	90.45
0.622	90.46
0.625	90.35
0.628	90.34
0.631	90.56
0.634	90.57
0.637	90.45
0.64	90.45
0.643	90.5
0.646	90.52
0.649	90.57
0.652	90.52
0.655	90.5
0.658	90.34
0.661	90.51
0.664	90.58
0.667	90.5
0.67	90.46
0.673	90.46
0.676	90.52
0.679	90.5
0.682	90.45
0.685	90.52
0.688	90.29
0.691	90.51
0.694	90.51
0.697	90.45
0.7	90.39
0.703	90.52
0.706	90.58
0.709	90.41
0.712	90.46
0.715	90.41
0.718	90.47
0.721	90.4
0.724	90.47
0.727	90.41
0.73	90.29
0.733	90.46
0.736	90.29
0.739	90.18
0.742	90.18
0.745	90.19
0.748	90.03
0.751	90.24
0.754	90.02
0.757	90.07
0.76	90.24
0.763	90.03
0.766	90.25
0.769	90.19
0.772	90.09
0.775	90.19
0.778	90.07
0.781	90.2
0.784	90.21
0.787	90.08
0.79	90.2
0.793	90.3
0.796	90.25
0.799	90.19
0.808	90.31
0.82	90.25
0.832	90.19
0.844	90.06
0.856	90.12
0.868	90.17
0.88	90.11
0.892	90.04
0.904	89.86
0.916	89.74
0.928	89.57
0.94	89.14
0.952	88.36
0.964	87.05
0.976	86.58
0.988	86.73
1	87.11
1.012	87.62
1.024	88.13
1.036	88.67
1.048	88.79
1.06	88.92
1.072	89.02
1.084	88.85
1.096	88.59
1.108	88.31
1.12	88.02
1.132	87.4
1.144	85.02
1.156	82.27
1.168	81.49
1.18	81.62
1.192	81.52
1.204	81.66
1.216	81.62
1.228	81.52
1.24	81.41
1.252	81.45
1.264	81.67
1.276	81.69
1.288	81.73
1.3	81.09
1.312	79.61
1.324	77.58
1.336	75.73
1.348	74.55
1.36	73.82
1.372	72.54
1.384	69.11
1.396	62.38
1.408	53.07
1.42	47.79
1.432	47.51
1.444	47.07
1.456	47.01
1.468	46.66
1.48	47.38
1.492	50.07
1.504	52.49
1.516	53.79
1.528	54.37
1.54	54.55
1.552	54.71
1.564	55.09
1.576	55.17
1.588	55.08
1.6	54.92
1.612	54.76
1.624	54.4
1.636	53.96
1.648	53.42
1.66	53.19
1.672	52.9
1.684	52.56
1.696	52.29
1.708	51.88
1.72	51.53
1.732	51.19
1.744	50.74
1.756	49.98
1.768	49.14
1.78	48.9
1.792	49.03
1.804	49.08
1.816	48.99
1.828	48.87
1.84	48.39
1.852	46.98
1.864	44.41
1.876	39.6
1.888	32.7
1.9	24.46
1.912	18.7
1.924	17.16
1.936	18.24
1.948	20.07
1.96	21.58
1.972	23.11
1.984	24.96
1.996	26.6
2.008	27.93
2.02	29.07
2.032	29.9
2.044	30.41
2.056	30.88
2.068	31.15
2.08	31.29
2.092	31.19
2.104	30.91
2.116	30.34
2.128	29.36
2.14	28.89
2.152	29.58
2.164	31.07
2.176	32.23
2.188	32.89
2.2	33.02
2.212	32.77
2.224	32.36
2.236	32.06
2.248	31.66
2.26	31.54
2.272	31.63
2.284	31.74
2.296	32.03
2.308	32.09
2.32	32.11
2.332	31.6
2.344	30.89
2.356	29.85
2.368	28.31
2.38	26.48
2.392	24.43
2.404	22.4
2.416	20.45
2.428	19.16
2.44	18.21
2.452	17.45
2.464	16.86
2.476	16.05
2.488	15.44
2.5	15.05
