Name: Red Slate
Type: Rock
Class: Metamorphic
Subclass: Slate
Particle Size: Solid surface
Sample No.: Ward91.txt
Owner: JPL
Origin: Ward's Collection of American Rocks.  Sample locality - Granville, Washington County, New York.  Collected by - JPL.
Description: A fine, red, fissile rock.  Geologic age - Cambrian
Measurement: Hemispherical reflectance
X Units: Wavelength (micrometers)
Y Units: Reflectance (percent)
wavelength	value
15.3871	4.08941
15.118	4.09626
14.8581	4.56809
14.6069	4.85355
14.3642	4.26299
14.1293	4.3625
13.9021	5.32151
13.682	5.59417
13.4687	6.12227
13.2621	6.7069
13.0616	7.73915
12.8672	8.08858
12.6784	6.78801
12.4951	5.55011
12.317	4.52682
12.1439	5.60527
11.9757	6.25632
11.812	6.62641
11.6527	7.03184
11.4977	7.59922
11.3468	8.40757
11.1997	8.91288
11.0564	9.66641
10.9168	9.45407
10.7806	10.1182
10.6478	11.2775
10.5182	12.9861
10.3917	15.1626
10.2683	17.1394
10.1477	18.6901
10.0299	20.0302
9.9148	21.4541
9.8024	22.4026
9.6925	25.2206
9.585	26.4118
9.4798	26.3454
9.377	28.3774
9.2763	28.1609
9.1778	28.6433
9.0814	28.7756
8.987	27.6233
8.8945	26.9225
8.8039	25.3695
8.7151	23.0673
8.6281	16.9679
8.5428	20.8514
8.4592	18.6122
8.3772	15.0082
8.2967	13.0635
8.2179	12.2581
8.1404	11.7242
8.0645	9.93665
7.9899	8.71698
7.9167	7.65223
7.8449	6.51269
7.7743	6.56084
7.705	6.61215
7.6369	6.54414
7.57	6.33535
7.5043	6.05303
7.4397	6.02276
7.3762	5.73056
7.3138	5.50778
7.2524	5.46272
7.1921	5.44956
7.1327	4.98499
7.0743	4.31731
7.0169	4.1545
6.9604	4.35105
6.9047	4.35366
6.85	4.83799
6.7962	4.83686
6.7431	4.72044
6.6909	4.81907
6.6395	5.304
6.5889	5.01142
6.539	4.98249
6.49	5.71625
6.4416	5.73697
6.3939	5.52988
6.347	5.12321
6.3007	4.71872
6.2551	4.37205
6.2101	4.41624
6.1658	4.56118
6.1222	4.84264
6.0791	4.93331
6.0366	5.02297
5.9948	4.90383
5.9535	4.63116
5.9127	4.77304
5.8726	4.91464
5.8329	5.25323
5.7938	5.48381
5.7552	5.62786
5.7172	5.61947
5.6796	5.64053
5.6425	5.31547
5.6059	5.14264
5.5698	5.13785
5.5341	5.22082
5.4989	5.61554
5.4641	5.69218
5.4298	5.86432
5.3959	5.33362
5.3624	4.87627
5.3294	4.9709
5.2967	5.20977
5.2644	5.60833
5.2326	6.16345
5.2011	6.69499
5.17	6.90802
5.1392	6.88583
5.1088	6.88963
5.0788	6.70363
5.0491	6.74399
5.0198	6.65824
4.9908	6.68799
4.9622	7.5053
4.9338	7.85827
4.9058	8.48592
4.8781	9.62362
4.8508	10.1025
4.8237	10.4922
4.7969	10.7605
4.7704	10.9697
4.7443	11.2888
4.7184	11.5838
4.6927	11.7332
4.6674	11.947
4.6423	12.3802
4.6175	12.9103
4.593	13.235
4.5687	13.6231
4.5447	13.6502
4.5209	13.4193
4.4974	12.9686
4.4741	13.0534
4.451	13.2894
4.4282	13.631
4.4057	14.2029
4.3833	14.61
4.3612	14.9441
4.3393	15.3481
4.3176	15.4583
4.2962	15.4827
4.2749	15.5256
4.2539	15.839
4.233	15.8225
4.2124	15.9026
4.192	15.902
4.1717	16.261
4.1517	16.1978
4.1319	16.2561
4.1122	16.473
4.0927	16.6562
4.0734	16.8131
4.0543	16.6507
4.0354	16.6486
4.0166	16.4094
3.9981	16.4517
3.9796	16.4944
3.9614	16.5709
3.9433	16.6997
3.9254	16.8381
3.9077	16.9543
3.8901	16.8032
3.8726	16.8766
3.8554	16.784
3.8382	16.6787
3.8213	16.8634
3.8045	16.7554
3.7878	16.9031
3.7713	16.8308
3.7549	16.4371
3.7386	16.7125
3.7225	16.3516
3.7066	16.4791
3.6907	16.1511
3.675	16.3611
3.6595	16.2749
3.644	16.1611
3.6287	16.0212
3.6136	15.7221
3.5985	15.3635
3.5836	15.0454
3.5688	14.7318
3.5541	14.2657
3.5396	14.1073
3.5251	13.897
3.5108	13.9364
3.4966	13.9038
3.4825	14.083
3.4685	13.9494
3.4547	13.8417
3.4409	13.719
3.4273	13.2629
3.4137	13.1445
3.4003	13.0164
3.387	12.1287
3.3738	12.2769
3.3606	12.1749
3.3476	12.0806
3.3347	11.9951
3.3219	11.6049
3.3092	11.5216
3.2965	11.3039
3.284	11.4031
3.2716	11.0636
3.2593	11.0165
3.247	11.1211
3.2348	11.1167
3.2228	11.4101
3.2108	11.052
3.1989	10.8059
3.1871	10.6973
3.1754	10.4852
3.1638	10.7772
3.1523	10.4175
3.1408	9.90673
3.1294	10.1649
3.1181	9.8101
3.1069	9.57259
3.0958	9.08265
3.0848	9.3226
3.0738	8.59919
3.0629	8.72227
3.0521	8.99924
3.0413	8.80191
3.0307	7.69079
3.0201	8.47869
3.0096	8.26752
2.9991	8.04533
2.9887	8.46672
2.9784	8.46885
2.9682	8.20599
2.9581	8.31444
2.948	8.02911
2.9379	8.77836
2.928	8.18879
2.9181	8.83839
2.9083	8.79453
2.8985	8.65162
2.8888	8.99629
2.8792	8.72124
2.8697	8.73849
2.8602	9.17444
2.8507	8.92223
2.8413	8.48599
2.832	8.76307
2.8228	8.14172
2.8136	7.36471
2.8045	7.02601
2.7954	6.69146
2.7864	6.72369
2.7774	5.57678
2.7685	5.65373
2.7597	5.65519
2.7509	5.61258
2.7422	6.42645
2.7335	7.99685
2.7249	10.2368
2.7163	12.19
2.7078	14.5403
2.6994	16.022
2.691	16.6979
2.6826	17.5564
2.6743	17.9167
2.666	19.0137
2.6578	18.6415
2.6497	18.251
2.6416	19.0131
2.6336	18.8038
2.6256	18.6718
2.6176	18.4433
2.6097	18.7156
2.6018	18.6465
2.594	18.7841
2.5863	19.1665
2.5785	19.2178
2.5709	18.8644
2.5633	18.0769
2.5557	19.138
2.5481	19.1483
2.5406	19.3434
2.5332	19.6218
2.5258	19.2472
2.5184	19.5162
2.5111	19.0777
2.5038	20.2846
2.4966	19.2941
2.4894	18.6923
2.4823	19.0679
2.4752	19.5238
2.4681	18.8037
2.4611	19.056
2.4541	19.0709
2.4471	18.9797
2.4402	19.1462
2.4333	19.4696
2.4265	18.9984
2.4197	19.0737
2.413	19.7569
2.4063	19.4876
2.3996	20.0638
2.3929	18.8757
2.3863	19.1076
2.3798	19.4215
2.3732	18.5896
2.3667	19.034
2.3603	18.9798
2.3538	18.7377
2.3474	19.4624
2.3411	18.9945
2.3347	19.0922
2.3285	18.9404
2.3222	19.4465
2.316	20.023
2.3098	19.9166
2.3036	20.4484
2.2975	19.5781
2.2914	19.8957
2.2854	19.9172
2.2793	20.5143
2.2733	20.6418
2.2674	20.4656
2.2614	18.457
2.2555	18.8342
2.2497	19.1608
2.2438	19.122
2.238	19.0558
2.2322	19.3612
2.2265	18.7364
2.2208	18.9829
2.2151	19.8634
2.2094	19.6444
2.2038	20.5142
2.1982	20.8065
2.1926	21.2439
2.187	20.8617
2.1815	19.621
2.176	21.1767
2.1706	20.5374
2.1651	21.0908
2.1597	19.2976
2.1543	21.525
2.149	20.8442
2.1436	20.3364
2.1383	20.6948
2.1331	20.8165
2.1278	22.1631
2.1226	21.0238
2.1174	21.7996
2.1122	22.1007
2.1071	20.8923
2.1019	20.8179
2.0968	21.0924
2.0918	20.6984
2.0867	21.549
2.0817	19.6823
2.0767	21.6004
2.0717	21.1923
2.0667	22.7971
2.0618	21.7961
2.0569	21.6155
2.052	20.7278
2.0472	22.1674
2.0423	21.5839
2.0375	22.1062
2.0327	22.1868
2.028	22.093
2.0232	21.5929
2.0185	20.8021
2.0138	22.825
2.0091	22.3089
2.0044	21.4952
1.9998	21.1695
