Name: Epidote Ca_2(Al,Fe^3+)_3O.SiO_4.Si_2O_7.OH
Type: Mineral
Class: Silicates
Subclass: Sorosilicate
Particle Size: 45-125um
Sample No.: SS-1A
Owner: JPL
Wavelength Range: VNIR-SWIR
Origin: Mexico, Baja California Norte, Valle De La Trinidad
Measurement: Hemispherical reflectance
X Units: Wavelength (micrometers)
Y Units: Reflectance (percent)
wavelength	value
0.4	6.18
0.403	6.4
0.406	6.57
0.409	6.87
0.412	7.34
0.415	7.96
0.418	8.53
0.421	9.36
0.424	10.02
0.427	10.75
0.43	11.75
0.433	12.65
0.436	13.51
0.439	14.1
0.442	14.18
0.445	14.2
0.448	13.75
0.451	12.78
0.454	12.49
0.457	13.15
0.46	13.36
0.463	13.41
0.466	12.94
0.469	12.55
0.472	12.66
0.475	13.21
0.478	14.1
0.481	15.22
0.484	16.45
0.487	17.48
0.49	18.53
0.493	19.42
0.496	20.38
0.499	21.07
0.502	21.71
0.505	22.1
0.508	22.7
0.511	23.21
0.514	23.56
0.517	23.91
0.52	24.11
0.523	24.4
0.526	24.62
0.529	24.78
0.532	25.06
0.535	25
0.538	25.08
0.541	25.13
0.544	25.24
0.547	25.31
0.55	25.32
0.553	25.07
0.556	25.13
0.559	25.09
0.562	25.12
0.565	25.26
0.568	25.25
0.571	25.27
0.574	25.05
0.577	25
0.58	24.95
0.583	25.06
0.586	25.03
0.589	25.04
0.592	25.06
0.595	25.07
0.598	25.12
0.601	25.18
0.604	25.32
0.607	25.32
0.61	25.41
0.613	25.36
0.616	25.58
0.619	25.68
0.622	25.73
0.625	25.96
0.628	26
0.631	26.28
0.634	26.41
0.637	26.68
0.64	26.72
0.643	26.99
0.646	27.31
0.649	27.49
0.652	27.84
0.655	27.93
0.658	28.15
0.661	28.5
0.664	28.87
0.667	29.04
0.67	29.22
0.673	29.55
0.676	29.81
0.679	30.19
0.682	30.32
0.685	30.65
0.688	30.82
0.691	31.07
0.694	31.22
0.697	31.59
0.7	31.69
0.703	31.94
0.706	32.2
0.709	32.44
0.712	32.46
0.715	32.74
0.718	32.87
0.721	33.17
0.724	33.31
0.727	33.42
0.73	33.39
0.733	33.69
0.736	33.79
0.739	33.94
0.742	34.08
0.745	34.05
0.748	34.12
0.751	34.24
0.754	34.36
0.757	34.46
0.76	34.54
0.763	34.47
0.766	34.48
0.769	34.44
0.772	34.51
0.775	34.71
0.778	34.73
0.781	34.62
0.784	34.57
0.787	34.55
0.79	34.68
0.793	34.8
0.796	34.67
0.799	34.75
0.808	35.49
0.82	35.66
0.832	36.12
0.844	36.78
0.856	37.46
0.868	38.32
0.88	39.22
0.892	39.95
0.904	40.31
0.916	40.65
0.928	40.95
0.94	40.93
0.952	40.73
0.964	40.57
0.976	40.37
0.988	40.22
1	39.97
1.012	39.82
1.024	39.66
1.036	39.56
1.048	39.63
1.06	39.83
1.072	40
1.084	40.37
1.096	40.94
1.108	41.66
1.12	42.4
1.132	43.23
1.144	43.9
1.156	44.77
1.168	45.75
1.18	46.69
1.192	47.62
1.204	48.51
1.216	49.35
1.228	50.13
1.24	50.67
1.252	51.08
1.264	51.48
1.276	51.89
1.288	52.18
1.3	52.28
1.312	52.39
1.324	52.66
1.336	52.84
1.348	53.07
1.36	53.28
1.372	53.31
1.384	53.45
1.396	53.6
1.408	53.6
1.42	53.65
1.432	53.71
1.444	53.81
1.456	53.77
1.468	53.52
1.48	53.2
1.492	52.75
1.504	52.15
1.516	51.44
1.528	50.64
1.54	50.11
1.552	50.38
1.564	51.22
1.576	51.79
1.588	52.13
1.6	52.51
1.612	52.72
1.624	52.95
1.636	53.08
1.648	53.14
1.66	53.38
1.672	53.5
1.684	53.61
1.696	53.77
1.708	53.92
1.72	54.19
1.732	54.38
1.744	54.51
1.756	54.8
1.768	54.91
1.78	55.08
1.792	55.23
1.804	55.33
1.816	54.81
1.828	54.64
1.84	55.42
1.852	56
1.864	56.22
1.876	56.35
1.888	56.64
1.9	57
1.912	57.22
1.924	57.2
1.936	57.07
1.948	57.17
1.96	57.71
1.972	58.33
1.984	58.7
1.996	58.98
2.008	59.07
2.02	59.46
2.032	59.69
2.044	59.83
2.056	59.94
2.068	60.01
2.08	60.18
2.092	60.31
2.104	60.44
2.116	60.47
2.128	60.48
2.14	60.28
2.152	60
2.164	59.87
2.176	59.37
2.188	58.81
2.2	58.25
2.212	56.97
2.224	54.35
2.236	49.49
2.248	45.84
2.26	46.08
2.272	46.65
2.284	44.64
2.296	39.7
2.308	32.72
2.32	27.3
2.332	24.96
2.344	28.45
2.356	37.12
2.368	45.83
2.38	51.56
2.392	54.35
2.404	55.97
2.416	56.85
2.428	57.05
2.44	56.83
2.452	56.36
2.464	55.87
2.476	55.2
2.488	54.59
2.5	54.04
