Name: Hematite alpha Fe_2O_3
Type: Mineral
Class: Oxides
Particle Size: 0-45um
Sample No.: O-1A
Owner: JPL
Wavelength Range: VNIR-SWIR
Origin: USA, Alabama, Birmingham
Measurement: Hemispherical reflectance
X Units: Wavelength (micrometers)
Y Units: Reflectance (percent)
wavelength	value
0.4	4.59
0.403	4.65
0.406	4.64
0.409	4.75
0.412	4.81
0.415	4.7
0.418	4.87
0.421	4.81
0.424	4.74
0.427	4.63
0.43	4.68
0.433	4.75
0.436	4.75
0.439	4.85
0.442	4.91
0.445	4.62
0.448	4.57
0.451	4.52
0.454	4.43
0.457	4.51
0.46	4.43
0.463	4.45
0.466	4.44
0.469	4.49
0.472	4.37
0.475	4.43
0.478	4.49
0.481	4.44
0.484	4.42
0.487	4.42
0.49	4.51
0.493	4.42
0.496	4.52
0.499	4.57
0.502	4.5
0.505	4.5
0.508	4.51
0.511	4.58
0.514	4.56
0.517	4.56
0.52	4.67
0.523	4.66
0.526	4.66
0.529	4.76
0.532	4.79
0.535	4.8
0.538	4.98
0.541	5.09
0.544	5.13
0.547	5.27
0.55	5.48
0.553	5.6
0.556	5.87
0.559	6.12
0.562	6.75
0.565	7.15
0.568	7.62
0.571	8.3
0.574	8.86
0.577	9.51
0.58	10.27
0.583	10.9
0.586	11.66
0.589	12.39
0.592	12.96
0.595	13.61
0.598	14
0.601	14.43
0.604	14.89
0.607	15.27
0.61	15.61
0.613	15.74
0.616	15.95
0.619	16.19
0.622	16.27
0.625	16.41
0.628	16.57
0.631	16.7
0.634	16.87
0.637	16.93
0.64	17.04
0.643	17.15
0.646	17.45
0.649	17.62
0.652	17.79
0.655	17.94
0.658	18.17
0.661	18.25
0.664	18.53
0.667	18.72
0.67	18.92
0.673	19.15
0.676	19.45
0.679	19.64
0.682	19.89
0.685	20.23
0.688	20.51
0.691	20.8
0.694	21.11
0.697	21.42
0.7	21.58
0.703	22.01
0.706	22.28
0.709	22.65
0.712	22.95
0.715	23.22
0.718	23.45
0.721	23.85
0.724	23.99
0.727	24.14
0.73	24.39
0.733	24.51
0.736	24.58
0.739	24.73
0.742	24.88
0.745	24.87
0.748	24.86
0.751	24.89
0.754	24.83
0.757	24.7
0.76	24.71
0.763	24.54
0.766	24.39
0.769	24.31
0.772	24.19
0.775	23.95
0.778	23.91
0.781	23.7
0.784	23.41
0.787	23.35
0.79	23.08
0.793	23
0.796	22.71
0.799	22.64
0.808	22.55
0.82	22.1
0.832	21.56
0.844	21.36
0.856	21.28
0.868	21.31
0.88	21.63
0.892	21.93
0.904	22.54
0.916	23.2
0.928	24.04
0.94	24.91
0.952	26.04
0.964	27.12
0.976	28.01
0.988	28.99
1	29.5
1.012	30.12
1.024	30.4
1.036	30.54
1.048	30.64
1.06	30.67
1.072	30.56
1.084	30.61
1.096	30.48
1.108	30.34
1.12	30.28
1.132	30.16
1.144	29.91
1.156	29.71
1.168	29.6
1.18	29.38
1.192	29.2
1.204	28.99
1.216	28.81
1.228	28.61
1.24	28.45
1.252	28.25
1.264	28.09
1.276	27.94
1.288	27.79
1.3	27.67
1.312	27.44
1.324	27.37
1.336	27.17
1.348	27.04
1.36	26.92
1.372	26.79
1.384	26.69
1.396	26.64
1.408	26.42
1.42	26.44
1.432	26.32
1.444	26.27
1.456	26.21
1.468	26.19
1.48	26.04
1.492	26.1
1.504	26.02
1.516	25.93
1.528	25.91
1.54	25.86
1.552	25.84
1.564	25.83
1.576	25.82
1.588	25.75
1.6	25.72
1.612	25.69
1.624	25.75
1.636	25.69
1.648	25.62
1.66	25.69
1.672	25.7
1.684	25.67
1.696	25.69
1.708	25.75
1.72	25.74
1.732	25.7
1.744	25.78
1.756	25.7
1.768	25.83
1.78	25.8
1.792	25.84
1.804	25.86
1.816	25.82
1.828	25.9
1.84	25.86
1.852	25.9
1.864	25.87
1.876	25.94
1.888	25.93
1.9	25.95
1.912	25.96
1.924	26.11
1.936	26.1
1.948	26.19
1.96	26.14
1.972	26.31
1.984	26.33
1.996	26.45
2.008	26.46
2.02	26.52
2.032	26.61
2.044	26.74
2.056	26.74
2.068	26.81
2.08	26.86
2.092	26.91
2.104	27.07
2.116	27.1
2.128	27.12
2.14	27.2
2.152	27.21
2.164	27.24
2.176	27.13
2.188	27.25
2.2	27.19
2.212	27.32
2.224	27.33
2.236	27.43
2.248	27.43
2.26	27.54
2.272	27.62
2.284	27.69
2.296	27.83
2.308	27.76
2.32	27.92
2.332	27.96
2.344	28.01
2.356	28.04
2.368	28.05
2.38	28.19
2.392	28.21
2.404	28.25
2.416	28.32
2.428	28.31
2.44	28.4
2.452	28.39
2.464	28.43
2.476	28.43
2.488	28.59
2.5	28.8
