Name: Johannsenite Ca(Mn,Fe^2+)(SiO_3)_2
Type: Mineral
Class: Silicates
Subclass: Inosilicates
Particle Size: 125-500um
Sample No.: IN-12A
Owner: JPL
Wavelength Range: VNIR-SWIR
Origin: USA, Arizona, Graham County, Aravaipa
Measurement: Hemispherical reflectance
X Units: Wavelength (micrometers)
Y Units: Reflectance (percent)
wavelength	value
0.4	2.84
0.403	2.87
0.406	2.81
0.409	2.81
0.412	2.81
0.415	2.93
0.418	2.86
0.421	2.87
0.424	2.8
0.427	2.98
0.43	2.92
0.433	2.98
0.436	2.92
0.439	2.87
0.442	2.85
0.445	2.97
0.448	2.98
0.451	3.1
0.454	2.91
0.457	2.82
0.46	2.93
0.463	2.97
0.466	3.04
0.469	2.98
0.472	3.15
0.475	3.02
0.478	3.14
0.481	3.08
0.484	3.14
0.487	3.07
0.49	3.06
0.493	3.17
0.496	3.21
0.499	3.14
0.502	3.19
0.505	3.07
0.508	3.19
0.511	3.19
0.514	3.35
0.517	3.19
0.52	3.35
0.523	3.29
0.526	3.34
0.529	3.36
0.532	3.42
0.535	3.37
0.538	3.49
0.541	3.37
0.544	3.49
0.547	3.47
0.55	3.57
0.553	3.55
0.556	3.66
0.559	3.48
0.562	3.63
0.565	3.57
0.568	3.69
0.571	3.7
0.574	3.82
0.577	3.64
0.58	3.64
0.583	3.58
0.586	3.76
0.589	3.77
0.592	3.89
0.595	3.7
0.598	3.75
0.601	3.74
0.604	3.87
0.607	3.81
0.61	3.74
0.613	3.57
0.616	3.85
0.619	3.8
0.622	3.85
0.625	3.8
0.628	3.85
0.631	3.74
0.634	3.85
0.637	3.81
0.64	3.91
0.643	3.86
0.646	3.97
0.649	3.92
0.652	3.91
0.655	3.85
0.658	3.97
0.661	3.92
0.664	4.03
0.667	3.85
0.67	3.97
0.673	3.85
0.676	4.1
0.679	3.97
0.682	4.03
0.685	3.91
0.688	3.98
0.691	4.02
0.694	4.02
0.697	3.98
0.7	3.99
0.703	3.9
0.706	3.97
0.709	3.9
0.712	4.08
0.715	4.02
0.718	4.03
0.721	4.02
0.724	4.02
0.727	4.24
0.73	4.14
0.733	4.13
0.736	4.18
0.739	4.08
0.742	4.13
0.745	4.17
0.748	4.3
0.751	4.18
0.754	4.18
0.757	4.14
0.76	4.23
0.763	4.22
0.766	4.18
0.769	4.17
0.772	4.28
0.775	4.18
0.778	4.17
0.781	4.23
0.784	4.29
0.787	4.22
0.79	4.34
0.793	4.35
0.796	4.35
0.799	4.42
0.808	4.65
0.82	4.72
0.832	4.84
0.844	4.91
0.856	4.92
0.868	4.93
0.88	4.88
0.892	4.94
0.904	4.87
0.916	4.93
0.928	5
0.94	5.01
0.952	4.95
0.964	4.95
0.976	4.94
0.988	4.93
1	5.01
1.012	5.12
1.024	5.13
1.036	5.16
1.048	5.23
1.06	5.27
1.072	5.38
1.084	5.37
1.096	5.29
1.108	5.44
1.12	5.51
1.132	5.59
1.144	5.52
1.156	5.46
1.168	5.62
1.18	5.67
1.192	5.83
1.204	5.86
1.216	5.85
1.228	5.94
1.24	6.11
1.252	6.31
1.264	6.42
1.276	6.58
1.288	6.77
1.3	6.85
1.312	7.1
1.324	7.29
1.336	7.46
1.348	7.67
1.36	7.83
1.372	7.98
1.384	8.29
1.396	8.43
1.408	8.56
1.42	8.73
1.432	8.92
1.444	9.18
1.456	9.36
1.468	9.52
1.48	9.82
1.492	10.07
1.504	10.32
1.516	10.57
1.528	10.79
1.54	11.06
1.552	11.31
1.564	11.53
1.576	11.79
1.588	11.9
1.6	12.19
1.612	12.5
1.624	12.74
1.636	13
1.648	13.12
1.66	13.42
1.672	13.66
1.684	13.88
1.696	14.11
1.708	14.36
1.72	14.56
1.732	14.79
1.744	15.09
1.756	15.35
1.768	15.6
1.78	15.8
1.792	16.11
1.804	16.27
1.816	16.51
1.828	16.86
1.84	17.14
1.852	17.3
1.864	17.37
1.876	17.11
1.888	16.5
1.9	15.49
1.912	15.17
1.924	15.68
1.936	16.14
1.948	16.52
1.96	16.88
1.972	17.4
1.984	18.02
1.996	18.51
2.008	18.92
2.02	19.44
2.032	19.94
2.044	20.2
2.056	20.54
2.068	21.05
2.08	21.4
2.092	21.7
2.104	22.07
2.116	22.52
2.128	22.74
2.14	22.98
2.152	23.21
2.164	23.39
2.176	23.65
2.188	23.71
2.2	23.78
2.212	23.75
2.224	23.79
2.236	23.96
2.248	23.97
2.26	23.74
2.272	23.57
2.284	23.38
2.296	23.43
2.308	23.77
2.32	24.35
2.332	24.51
2.344	24.51
2.356	24.6
2.368	24.26
2.38	23.95
2.392	23.52
2.404	23.27
2.416	23.07
2.428	22.8
2.44	22.31
2.452	21.97
2.464	21.55
2.476	21.13
2.488	20.75
2.5	20.47
