Name: Tremolite Ca_2(Mg,Fe^2+)_5Si_8O_22(OH)_2
Type: Mineral
Class: Silicates
Subclass: Inosilicates
Particle Size: 0-45um
Sample No.: IN-5A
Owner: JPL
Origin: None.
Measurement: Hemispherical reflectance
X Units: Wavelength (micrometers)
Y Units: Reflectance (percent)
wavelength	value
2.5	59.2993
2.494	58.7392
2.488	58.596
2.482	58.6305
2.476	58.5293
2.47	58.3677
2.464	58.3192
2.458	58.4216
2.452	58.6937
2.446	59.0369
2.44	59.3949
2.434	59.8349
2.428	60.3098
2.422	60.3255
2.416	60.1349
2.41	60.0822
2.404	59.7649
2.398	58.5552
2.392	56.6228
2.386	55.0586
2.38	55.1073
2.374	56.7411
2.368	58.844
2.362	60.3671
2.356	61.2906
2.35	61.8315
2.344	62.2206
2.338	62.1087
2.332	60.8944
2.326	58.122
2.32	54.592
2.314	52.048
2.308	51.3655
2.302	51.7401
2.296	52.5741
2.29	54.1956
2.284	56.5229
2.278	58.3953
2.272	59.825
2.266	61.2886
2.26	62.4048
2.254	63.1739
2.248	63.4251
2.242	63.5002
2.236	63.7248
2.23	63.883
2.224	63.9249
2.218	64.0361
2.212	64.1643
2.206	64.2678
2.2	64.34
2.194	64.3485
2.188	64.3859
2.182	64.3629
2.176	64.5007
2.17	64.5877
2.164	64.7031
2.158	64.581
2.152	64.7482
2.146	64.6873
2.14	64.6304
2.134	64.4291
2.128	64.1307
2.122	63.9434
2.116	63.6485
2.11	63.4601
2.104	63.7667
2.098	63.9872
2.092	64.1086
2.086	64.1088
2.08	64.1869
2.074	64.2995
2.068	64.3669
2.062	64.497
2.056	64.5648
2.05	64.6648
2.044	64.7709
2.038	64.9607
2.032	64.9707
2.026	65.0103
2.02	64.9848
2.014	64.9149
2.008	64.8439
2.002	64.9174
1.996	64.9528
1.99	64.9241
1.984	64.8773
1.978	64.8845
1.972	64.9069
1.966	64.8618
1.96	64.9675
1.954	64.9215
1.948	64.8882
1.942	64.9214
1.936	64.945
1.93	64.9793
1.924	64.994
1.918	65.0569
1.912	65.16
1.906	65.1603
1.9	65.3264
1.894	65.4506
1.888	65.4901
1.882	65.6507
1.876	65.6742
1.87	65.7168
1.864	65.803
1.858	65.7137
1.852	65.7886
1.846	65.8645
1.84	65.8576
1.834	65.8685
1.828	65.9402
1.822	66.0031
1.816	65.9741
1.81	66.0139
1.804	66.0996
1.798	66.0678
1.792	66.043
1.786	66.0576
1.78	66.0379
1.774	66.0451
1.768	66.0507
1.762	66.0199
1.756	66.0881
1.75	66.0864
1.744	66.1224
1.738	66.2177
1.732	66.2255
1.726	66.211
1.72	66.1787
1.714	66.2112
1.708	66.2078
1.702	66.1949
1.696	66.2864
1.69	66.207
1.684	66.2734
1.678	66.2158
1.672	66.2103
1.666	66.1897
1.66	66.2119
1.654	66.3059
1.648	66.2967
1.642	66.3593
1.636	66.241
1.63	66.2583
1.624	66.3014
1.618	66.3057
1.612	66.3055
1.606	66.3521
1.6	66.3509
1.594	66.3225
1.588	66.3771
1.582	66.3569
1.576	66.4184
1.57	66.3857
1.564	66.3326
1.558	66.281
1.552	66.295
1.546	66.3061
1.54	66.2985
1.534	66.2776
1.528	66.2741
1.522	66.3189
1.516	66.2557
1.51	66.2823
1.504	66.3354
1.498	66.2423
1.492	66.2502
1.486	66.2576
1.48	66.1616
1.474	66.0774
1.468	66.1428
1.462	66.2422
1.456	66.2305
1.45	66.1764
1.444	66.2774
1.438	66.2084
1.432	66.2171
1.426	66.2567
1.42	66.2078
1.414	66.2513
1.408	66.2359
1.402	66.0886
1.396	61.8906
1.39	62.221
1.384	66.2761
1.378	66.2712
1.372	66.3358
1.366	66.3235
1.36	66.3789
1.354	66.3907
1.348	66.379
1.342	66.3916
1.336	66.3969
1.33	66.3426
1.324	66.4251
1.318	66.3598
1.312	66.3542
1.306	66.4122
1.3	66.3658
1.294	66.3958
1.288	66.4687
1.282	66.3921
1.276	66.312
1.27	66.3141
1.264	66.3983
1.258	66.4164
1.252	66.379
1.246	66.395
1.24	66.4142
1.234	66.3918
1.228	66.3902
1.222	66.3779
1.216	66.3854
1.21	66.3596
1.204	66.3789
1.198	66.4149
1.192	66.3576
1.186	66.3782
1.18	66.3883
1.174	66.3599
1.168	66.3671
1.162	66.3499
1.156	66.376
1.15	66.3876
1.144	66.3691
1.138	66.3463
1.132	66.305
1.126	66.3362
1.12	66.2958
1.114	66.2659
1.108	66.2367
1.102	66.1716
1.096	66.1454
1.09	66.0858
1.084	65.9814
1.078	65.9522
1.072	65.8537
1.066	65.7303
1.06	65.6142
1.054	65.6164
1.048	65.6398
1.042	65.5861
1.036	65.5822
1.03	65.6137
1.024	65.5913
1.018	65.6366
1.012	65.7196
1.006	65.7607
1	65.8454
0.994	65.9446
0.988	65.8971
0.982	66.119
0.976	66.1003
0.97	66.1446
0.964	66.1558
0.958	66.2931
0.952	65.9755
0.946	66.2598
0.94	66.3802
0.934	66.4118
0.928	66.4536
0.922	66.547
0.916	66.5592
0.91	66.5785
0.904	66.5928
0.898	66.6627
0.892	66.6987
0.886	66.6798
0.88	66.7068
0.874	66.7567
0.868	66.6887
0.862	66.6355
0.856	66.8191
0.85	66.8234
0.844	66.8851
0.838	66.8721
0.832	66.9
0.826	66.9274
0.82	66.9351
0.814	66.9585
0.808	67.016
0.802	66.9844
0.796	66.9333
0.79	66.903
0.784	66.8544
0.778	66.8972
0.772	66.8556
0.766	66.8909
0.76	66.8653
0.754	66.8881
0.748	66.8541
0.742	66.8591
0.736	66.8433
0.73	66.8208
0.724	66.8254
0.718	66.8144
0.712	66.8064
0.706	66.7608
0.7	66.7534
0.694	66.7442
0.688	66.7138
0.682	66.7139
0.676	66.6896
0.67	66.668
0.664	66.6276
0.658	66.6304
0.652	66.6119
0.646	66.578
0.64	66.5387
0.634	66.5351
0.628	66.4913
0.622	66.4596
0.616	66.4407
0.61	66.3892
0.604	66.3666
0.598	66.3377
0.592	66.3475
0.586	66.2788
0.58	66.2476
0.574	66.1863
0.568	66.1253
0.562	66.0648
0.556	65.9677
0.55	65.8873
0.544	65.7842
0.538	65.7162
0.532	65.6169
0.526	65.5109
0.52	65.4009
0.514	65.2801
0.508	65.138
0.502	64.9776
0.496	64.8031
0.49	64.5886
0.484	64.3675
0.478	64.2609
0.472	64.1179
0.466	63.9751
0.46	63.8103
0.454	63.5991
0.448	63.3742
0.442	63.0944
0.436	62.8319
0.43	62.5573
0.424	62.2612
0.418	61.9838
0.412	61.665
0.406	61.3414
0.4	60.9612
