Name: Hornblende Syenite
Type: Rock
Class: Igneous
Subclass: Alkalic
Particle Size: Solid surface
Sample No.: Ward19.txt
Owner: JPL
Origin: Ward's Collection of American Rocks.  Sample locality - Near Cuttingsville, Ruthland County, Vermont.
Description: A granular gray rock composed of feldspar showing good
Measurement: Hemispherical reflectance
X Units: Wavelength (micrometers)
Y Units: Reflectance (percent)
wavelength	value
15.3871	6.28711
15.118	3.8681
14.8581	3.38543
14.6069	3.73592
14.3642	4.07043
14.1293	4.43126
13.9021	4.91559
13.682	4.57614
13.4687	4.87509
13.2621	4.81982
13.0616	4.31078
12.8672	3.73483
12.6784	4.15147
12.4951	3.41566
12.317	4.24112
12.1439	4.9748
11.9757	5.39804
11.812	6.10947
11.6527	6.58378
11.4977	6.79778
11.3468	7.3297
11.1997	7.96286
11.0564	8.59301
10.9168	9.17898
10.7806	10.3975
10.6478	11.3603
10.5182	12.6956
10.3917	14.7651
10.2683	17.1981
10.1477	19.848
10.0299	21.6313
9.9148	23.4754
9.8024	22.4966
9.6925	23.7687
9.585	24.0441
9.4798	19.4862
9.377	15.6724
9.2763	14.0735
9.1778	13.5877
9.0814	12.3272
8.987	12.1091
8.8945	12.9322
8.8039	14.7823
8.7151	15.8376
8.6281	16.1574
8.5428	16.0358
8.4592	16.2607
8.3772	15.4581
8.2967	12.4076
8.2179	8.09134
8.1404	4.47591
8.0645	2.51962
7.9899	1.65571
7.9167	1.2562
7.8449	1.00024
7.7743	1.07183
7.705	1.0428
7.6369	1.13723
7.57	1.1367
7.5043	1.29314
7.4397	1.45142
7.3762	1.5941
7.3138	1.59167
7.2524	1.70627
7.1921	1.70121
7.1327	1.93901
7.0743	2.1869
7.0169	2.12922
6.9604	2.28352
6.9047	2.44054
6.85	2.39683
6.7962	2.34885
6.7431	2.57678
6.6909	2.72376
6.6395	2.55197
6.5889	2.61554
6.539	2.69286
6.49	2.69176
6.4416	2.88396
6.3939	2.82834
6.347	2.91076
6.3007	2.71317
6.2551	2.70024
6.2101	2.8407
6.1658	2.72942
6.1222	2.89165
6.0791	2.90156
6.0366	2.87482
5.9948	2.91341
5.9535	3.02708
5.9127	2.9743
5.8726	3.01732
5.8329	3.06413
5.7938	3.09853
5.7552	3.16787
5.7172	3.30069
5.6796	3.27366
5.6425	3.44954
5.6059	3.5222
5.5698	3.50386
5.5341	3.54293
5.4989	3.7675
5.4641	4.01775
5.4298	4.11212
5.3959	4.28502
5.3624	4.42518
5.3294	4.46656
5.2967	4.74113
5.2644	4.72283
5.2326	4.76269
5.2011	4.91306
5.17	4.99436
5.1392	5.37248
5.1088	5.45851
5.0788	5.73893
5.0491	5.96628
5.0198	6.15371
4.9908	6.24557
4.9622	6.58929
4.9338	6.65792
4.9058	6.68259
4.8781	6.8633
4.8508	7.05373
4.8237	7.04263
4.7969	7.09138
4.7704	7.06581
4.7443	7.22272
4.7184	7.38038
4.6927	7.44118
4.6674	7.72116
4.6423	7.95279
4.6175	8.25224
4.593	8.88653
4.5687	9.14237
4.5447	9.60523
4.5209	9.91566
4.4974	10.6111
4.4741	11.1249
4.451	11.5086
4.4282	11.9774
4.4057	12.4107
4.3833	12.902
4.3612	13.276
4.3393	13.7951
4.3176	14.2985
4.2962	14.7749
4.2749	15.1761
4.2539	15.9424
4.233	16.2444
4.2124	16.7987
4.192	17.3056
4.1717	17.755
4.1517	17.9094
4.1319	18.4674
4.1122	18.4334
4.0927	18.8128
4.0734	18.7637
4.0543	18.851
4.0354	18.9884
4.0166	18.7807
3.9981	18.6225
3.9796	18.2795
3.9614	18.6758
3.9433	19.136
3.9254	19.4498
3.9077	19.4999
3.8901	19.4884
3.8726	19.4178
3.8554	19.6681
3.8382	19.56
3.8213	19.8434
3.8045	19.7871
3.7878	19.9218
3.7713	19.7878
3.7549	19.8122
3.7386	19.591
3.7225	19.4689
3.7066	19.2511
3.6907	19.2034
3.675	19.0251
3.6595	19.1285
3.644	18.8414
3.6287	18.744
3.6136	18.2536
3.5985	18.1717
3.5836	17.9727
3.5688	17.666
3.5541	17.4142
3.5396	17.2429
3.5251	16.9394
3.5108	16.4293
3.4966	16.1837
3.4825	15.5284
3.4685	15.6886
3.4547	15.6127
3.4409	15.0172
3.4273	14.9693
3.4137	14.8398
3.4003	14.1667
3.387	14.125
3.3738	13.8018
3.3606	13.6645
3.3476	13.5454
3.3347	13.1773
3.3219	12.9325
3.3092	12.8231
3.2965	12.2038
3.284	12.2594
3.2716	11.6987
3.2593	11.5933
3.247	11.4909
3.2348	11.4332
3.2228	11.341
3.2108	10.8766
3.1989	10.5057
3.1871	10.2631
3.1754	9.78079
3.1638	9.91569
3.1523	9.42411
3.1408	9.25062
3.1294	9.20141
3.1181	8.83603
3.1069	8.79516
3.0958	8.79824
3.0848	8.73691
3.0738	8.98821
3.0629	8.55067
3.0521	8.4023
3.0413	8.45955
3.0307	7.76828
3.0201	7.89884
3.0096	8.03532
2.9991	7.50305
2.9887	7.79617
2.9784	7.60995
2.9682	7.91694
2.9581	8.10361
2.948	7.96509
2.9379	8.01553
2.928	7.92944
2.9181	7.68631
2.9083	8.43294
2.8985	8.02845
2.8888	7.90804
2.8792	7.67974
2.8697	8.32608
2.8602	8.44317
2.8507	8.26087
2.8413	7.85498
2.832	8.11998
2.8228	7.31501
2.8136	8.67383
2.8045	7.8225
2.7954	9.20566
2.7864	9.11073
2.7774	9.20518
2.7685	9.14794
2.7597	9.07295
2.7509	9.53867
2.7422	11.0293
2.7335	11.5471
2.7249	13.2315
2.7163	15.711
2.7078	17.8681
2.6994	19.44
2.691	22.2112
2.6826	24.0241
2.6743	24.8851
2.666	25.91
2.6578	26.074
2.6497	26.8762
2.6416	27.0989
2.6336	27.1032
2.6256	27.9239
2.6176	27.9266
2.6097	28.1756
2.6018	27.9643
2.594	28.9884
2.5863	28.8185
2.5785	28.7214
2.5709	28.8544
2.5633	28.6186
2.5557	28.8089
2.5481	28.9752
2.5406	28.9423
2.5332	29.4803
2.5258	29.036
2.5184	29.245
2.5111	29.4535
2.5038	29.3776
2.4966	29.5889
2.4894	29.1172
2.4823	29.7904
2.4752	29.8518
2.4681	29.3808
2.4611	29.2103
2.4541	29.5936
2.4471	29.3431
2.4402	29.374
2.4333	29.6089
2.4265	29.4784
2.4197	29.974
2.413	30.0802
2.4063	30.7782
2.3996	31.1398
2.3929	31.3253
2.3863	31.5634
2.3798	32.0727
2.3732	31.3604
2.3667	31.8601
2.3603	31.1923
2.3538	32.5742
2.3474	31.8909
2.3411	32.623
2.3347	32.7013
2.3285	33.0823
2.3222	33.1763
2.316	33.1206
2.3098	33.0854
2.3036	34.1467
2.2975	33.5396
2.2914	33.9152
2.2854	33.9737
2.2793	34.098
2.2733	34.8642
2.2674	33.7477
2.2614	34.0983
2.2555	33.6903
2.2497	34.0136
2.2438	33.5709
2.238	33.9064
2.2322	33.9097
2.2265	34.8214
2.2208	34.1864
2.2151	33.8532
2.2094	33.5691
2.2038	33.0342
2.1982	33.4741
2.1926	33.692
2.187	33.4301
2.1815	34.2077
2.176	33.6234
2.1706	34.2173
2.1651	34.1792
2.1597	33.7723
2.1543	34.7608
2.149	33.5774
2.1436	34.0765
2.1383	34.0554
2.1331	34.7974
2.1278	33.6279
2.1226	33.9189
2.1174	33.3995
2.1122	32.9882
2.1071	33.2579
2.1019	34.1086
2.0968	34.6704
2.0918	33.5097
2.0867	34.0244
2.0817	34.3612
2.0767	34.0731
2.0717	34.5745
2.0667	34.9816
2.0618	32.2682
2.0569	30.2193
2.052	34.6149
2.0472	32.6829
2.0423	33.5836
2.0375	32.5162
2.0327	33.7298
2.028	33.3192
2.0232	33.5222
2.0185	31.4178
2.0138	31.3157
2.0091	33.0008
2.0044	31.7563
1.9998	33.0807
