Name: Orthoclase (Feldspar) (K,Na)AlSi_3O_8
Type: Mineral
Class: Silicates
Subclass: Tectosilicates
Particle Size: 45-125um
Sample No.: TS-12A
Owner: JPL
Wavelength Range: VNIR-SWIR
Origin: India
Measurement: Hemispherical reflectance
X Units: Wavelength (micrometers)
Y Units: Reflectance (percent)
wavelength	value
0.4	74.62
0.403	74.98
0.406	75.22
0.409	75.47
0.412	75.66
0.415	75.84
0.418	76.09
0.421	76.34
0.424	76.66
0.427	76.88
0.43	77.29
0.433	77.42
0.436	77.74
0.439	78.12
0.442	78.38
0.445	78.65
0.448	78.78
0.451	79.11
0.454	79.23
0.457	79.53
0.46	79.72
0.463	80.04
0.466	80.06
0.469	80.13
0.472	80.16
0.475	80.46
0.478	80.7
0.481	80.82
0.484	80.9
0.487	80.98
0.49	81.19
0.493	81.33
0.496	81.33
0.499	81.71
0.502	81.8
0.505	81.92
0.508	82.07
0.511	82.17
0.514	82.22
0.517	82.37
0.52	82.45
0.523	82.6
0.526	82.77
0.529	82.82
0.532	82.8
0.535	82.97
0.538	83.14
0.541	83.11
0.544	83.1
0.547	83.32
0.55	83.54
0.553	83.71
0.556	83.72
0.559	83.71
0.562	84.22
0.565	84.19
0.568	84.36
0.571	84.45
0.574	84.36
0.577	84.53
0.58	84.42
0.583	84.45
0.586	84.64
0.589	84.7
0.592	84.58
0.595	84.69
0.598	84.83
0.601	84.98
0.604	85.03
0.607	85.06
0.61	85.09
0.613	84.89
0.616	84.96
0.619	84.79
0.622	84.93
0.625	85.08
0.628	85
0.631	85.07
0.634	85.09
0.637	85
0.64	84.99
0.643	85.01
0.646	85.21
0.649	85.23
0.652	85.34
0.655	85.29
0.658	85.32
0.661	85.33
0.664	85.35
0.667	85.34
0.67	85.34
0.673	85.43
0.676	85.45
0.679	85.38
0.682	85.46
0.685	85.5
0.688	85.64
0.691	85.47
0.694	85.46
0.697	85.53
0.7	85.66
0.703	85.67
0.706	85.71
0.709	85.63
0.712	85.64
0.715	85.79
0.718	85.92
0.721	85.7
0.724	85.76
0.727	85.75
0.73	85.81
0.733	85.87
0.736	85.8
0.739	85.82
0.742	85.93
0.745	86.04
0.748	85.88
0.751	85.93
0.754	85.98
0.757	85.93
0.76	85.82
0.763	85.98
0.766	85.94
0.769	86
0.772	86.1
0.775	86.13
0.778	86
0.781	86.11
0.784	85.97
0.787	86.01
0.79	86.06
0.793	86.13
0.796	86.12
0.799	86.08
0.808	86.42
0.82	86.37
0.832	86.39
0.844	86.42
0.856	86.39
0.868	86.39
0.88	86.27
0.892	86.28
0.904	86.22
0.916	86.03
0.928	86.04
0.94	85.92
0.952	85.89
0.964	86.02
0.976	85.79
0.988	85.7
1	85.53
1.012	85.6
1.024	85.42
1.036	85.49
1.048	85.42
1.06	85.43
1.072	85.33
1.084	85.32
1.096	85.29
1.108	85.37
1.12	85.41
1.132	85.49
1.144	85.46
1.156	85.38
1.168	85.42
1.18	85.51
1.192	85.5
1.204	85.6
1.216	85.5
1.228	85.6
1.24	85.58
1.252	85.73
1.264	85.8
1.276	85.81
1.288	85.9
1.3	85.91
1.312	85.94
1.324	85.87
1.336	85.83
1.348	85.91
1.36	86.01
1.372	85.9
1.384	85.94
1.396	85.93
1.408	85.81
1.42	85.84
1.432	85.94
1.444	86.17
1.456	86.1
1.468	86.16
1.48	86.3
1.492	86.3
1.504	86.35
1.516	86.49
1.528	86.58
1.54	86.59
1.552	86.54
1.564	86.61
1.576	86.73
1.588	86.69
1.6	86.7
1.612	86.77
1.624	86.76
1.636	86.73
1.648	86.76
1.66	86.82
1.672	86.82
1.684	86.83
1.696	86.99
1.708	86.96
1.72	86.98
1.732	86.93
1.744	86.9
1.756	86.85
1.768	86.9
1.78	86.9
1.792	86.93
1.804	86.96
1.816	86.93
1.828	86.91
1.84	86.96
1.852	86.88
1.864	86.77
1.876	86.54
1.888	86.3
1.9	85.89
1.912	85.63
1.924	85.74
1.936	85.82
1.948	85.91
1.96	86.07
1.972	86.35
1.984	86.48
1.996	86.77
2.008	86.96
2.02	87.06
2.032	87.15
2.044	87.25
2.056	87.23
2.068	87.23
2.08	87.47
2.092	87.46
2.104	87.57
2.116	87.84
2.128	87.78
2.14	87.68
2.152	87.46
2.164	87.3
2.176	87.2
2.188	86.98
2.2	86.87
2.212	86.82
2.224	86.95
2.236	86.91
2.248	87.04
2.26	86.97
2.272	87.12
2.284	87.06
2.296	87.13
2.308	87.16
2.32	87.34
2.332	87.26
2.344	87.29
2.356	87.37
2.368	87.25
2.38	87.13
2.392	87.04
2.404	86.88
2.416	86.8
2.428	86.67
2.44	86.55
2.452	86.25
2.464	86.11
2.476	85.93
2.488	86.23
2.5	86.44
