Name: Actinolite Ca_2(Mg,Fe^2+)_5Si_8O_22(OH)_2
Type: Mineral
Class: Silicates
Subclass: Inosilicates
Particle Size: 0-45um
Sample No.: IN-4A
Owner: JPL
Wavelength Range: VNIR-SWIR
Origin: USA, California, San Bernadino County, Wrightwood
Measurement: Hemispherical reflectance
X Units: Wavelength (micrometers)
Y Units: Reflectance (percent)
wavelength	value
0.4	48.07
0.403	48.52
0.406	48.96
0.409	49.38
0.412	49.68
0.415	50.01
0.418	50.57
0.421	50.99
0.424	51.42
0.427	51.76
0.43	52.08
0.433	52.4
0.436	52.48
0.439	52.58
0.442	52.82
0.445	53.18
0.448	53.21
0.451	53.67
0.454	53.92
0.457	54.31
0.46	54.56
0.463	54.88
0.466	55.28
0.469	55.66
0.472	56.13
0.475	56.57
0.478	57.09
0.481	57.39
0.484	57.53
0.487	57.77
0.49	58.18
0.493	58.68
0.496	58.97
0.499	59.26
0.502	59.5
0.505	59.79
0.508	59.87
0.511	60.43
0.514	60.77
0.517	60.86
0.52	60.9
0.523	61.11
0.526	61.31
0.529	61.4
0.532	61.34
0.535	61.26
0.538	61.38
0.541	61.24
0.544	61.28
0.547	61.29
0.55	61.42
0.553	61.24
0.556	61.21
0.559	61.22
0.562	61.54
0.565	61.31
0.568	61.08
0.571	60.67
0.574	60.42
0.577	60.34
0.58	60.14
0.583	59.93
0.586	59.82
0.589	59.65
0.592	59.35
0.595	59.01
0.598	58.93
0.601	58.99
0.604	58.77
0.607	58.4
0.61	58.15
0.613	58
0.616	57.79
0.619	57.47
0.622	57.5
0.625	57.31
0.628	56.95
0.631	56.67
0.634	56.72
0.637	56.73
0.64	56.58
0.643	56.49
0.646	56.34
0.649	56.37
0.652	56.31
0.655	56.42
0.658	56.43
0.661	56.43
0.664	56.29
0.667	56.56
0.67	56.76
0.673	56.76
0.676	56.83
0.679	56.83
0.682	57.03
0.685	57.01
0.688	57.11
0.691	57.09
0.694	57.16
0.697	57.04
0.7	57.23
0.703	57.53
0.706	57.52
0.709	57.55
0.712	57.82
0.715	57.99
0.718	58.13
0.721	58.21
0.724	58.36
0.727	58.3
0.73	58.49
0.733	58.7
0.736	58.82
0.739	58.91
0.742	58.8
0.745	59
0.748	59.1
0.751	59.17
0.754	59.31
0.757	59.49
0.76	59.39
0.763	59.43
0.766	59.53
0.769	59.49
0.772	59.55
0.775	59.32
0.778	59.58
0.781	59.71
0.784	59.8
0.787	59.65
0.79	59.88
0.793	59.71
0.796	59.86
0.799	59.82
0.808	59.75
0.82	59.4
0.832	58.94
0.844	58.52
0.856	57.97
0.868	57.43
0.88	56.9
0.892	56.42
0.904	55.94
0.916	55.31
0.928	54.75
0.94	53.9
0.952	53.03
0.964	52.2
0.976	51.22
0.988	50.06
1	49.32
1.012	48.73
1.024	48.52
1.036	48.71
1.048	49.47
1.06	50.93
1.072	52.87
1.084	54.73
1.096	56.4
1.108	57.84
1.12	59.22
1.132	60.25
1.144	61.16
1.156	62.02
1.168	62.79
1.18	63.53
1.192	64.32
1.204	65.14
1.216	65.94
1.228	66.69
1.24	67.6
1.252	68.41
1.264	69.12
1.276	69.97
1.288	70.67
1.3	71.4
1.312	72.06
1.324	72.67
1.336	73.21
1.348	73.75
1.36	74.35
1.372	74.44
1.384	71
1.396	67.83
1.408	74.37
1.42	76.13
1.432	76.69
1.444	77.1
1.456	77.37
1.468	77.6
1.48	77.86
1.492	78.15
1.504	78.32
1.516	78.56
1.528	78.77
1.54	78.93
1.552	79.14
1.564	79.32
1.576	79.48
1.588	79.68
1.6	79.72
1.612	79.79
1.624	79.92
1.636	79.99
1.648	80.09
1.66	80.26
1.672	80.35
1.684	80.39
1.696	80.42
1.708	80.51
1.72	80.5
1.732	80.34
1.744	80.35
1.756	80.39
1.768	80.27
1.78	80.32
1.792	80.27
1.804	80.21
1.816	80.14
1.828	79.9
1.84	79.85
1.852	79.69
1.864	79.45
1.876	79.26
1.888	79.07
1.9	78.76
1.912	78.49
1.924	78.15
1.936	77.76
1.948	77.54
1.96	77.33
1.972	77.2
1.984	76.98
1.996	76.92
2.008	76.78
2.02	76.83
2.032	76.77
2.044	76.49
2.056	76.29
2.068	76.04
2.08	75.73
2.092	75.41
2.104	74.79
2.116	74.45
2.128	74.36
2.14	74.32
2.152	74.17
2.164	74.08
2.176	73.92
2.188	73.6
2.2	73.35
2.212	72.99
2.224	72.46
2.236	71.53
2.248	70.49
2.26	69
2.272	66.64
2.284	63.49
2.296	60.39
2.308	59.84
2.32	61.64
2.332	64.89
2.344	66.96
2.356	66.79
2.368	64.82
2.38	63.14
2.392	63.16
2.404	64.53
2.416	65.84
2.428	66.32
2.44	66.15
2.452	65.87
2.464	65.67
2.476	65.6
2.488	66.03
2.5	66.33
