Name: Plumbojarosite PbFe_3^3+(SO_4)_4(OH)_12
Type: Mineral
Class: Sulfates
Particle Size: 125-500um
Sample No.: SO-7B
Owner: JPL
Wavelength Range: VNIR-SWIR
Origin: Mexico, Hidalgo, Zimapan, Lomo De Toro Mine
Measurement: Hemispherical reflectance
X Units: Wavelength (micrometers)
Y Units: Reflectance (percent)
wavelength	value
0.4	4.31
0.403	4.62
0.406	5.03
0.409	5.32
0.412	5.67
0.415	6.06
0.418	6.16
0.421	6.5
0.424	6.69
0.427	6.82
0.43	6.99
0.433	7.05
0.436	7.35
0.439	7.57
0.442	8
0.445	8.54
0.448	8.9
0.451	9.53
0.454	9.92
0.457	10.33
0.46	10.58
0.463	10.86
0.466	11.18
0.469	11.45
0.472	11.74
0.475	11.93
0.478	12.28
0.481	12.69
0.484	13.06
0.487	13.43
0.49	13.81
0.493	14.12
0.496	14.77
0.499	15.18
0.502	15.66
0.505	16.16
0.508	16.61
0.511	17.23
0.514	17.85
0.517	18.44
0.52	18.99
0.523	19.69
0.526	20.41
0.529	21.06
0.532	21.82
0.535	22.45
0.538	23.1
0.541	23.92
0.544	24.65
0.547	25.4
0.55	26.11
0.553	26.77
0.556	27.54
0.559	27.97
0.562	29
0.565	29.58
0.568	30.15
0.571	30.67
0.574	31.04
0.577	31.6
0.58	32.02
0.583	32.39
0.586	32.93
0.589	33.27
0.592	33.66
0.595	34.02
0.598	34.42
0.601	34.8
0.604	35.17
0.607	35.55
0.61	35.87
0.613	36.2
0.616	36.55
0.619	36.71
0.622	37.22
0.625	37.39
0.628	37.74
0.631	38.02
0.634	38.37
0.637	38.64
0.64	38.88
0.643	39.18
0.646	39.53
0.649	39.73
0.652	40.05
0.655	40.34
0.658	40.62
0.661	40.95
0.664	41.2
0.667	41.49
0.67	41.77
0.673	42.08
0.676	42.49
0.679	42.64
0.682	42.89
0.685	43.15
0.688	43.51
0.691	43.76
0.694	43.99
0.697	44.26
0.7	44.34
0.703	44.71
0.706	44.88
0.709	45.2
0.712	45.4
0.715	45.59
0.718	45.77
0.721	45.88
0.724	46.12
0.727	46.29
0.73	46.29
0.733	46.29
0.736	46.34
0.739	46.29
0.742	46.38
0.745	46.32
0.748	46.18
0.751	46.23
0.754	45.97
0.757	45.83
0.76	45.68
0.763	45.49
0.766	45.35
0.769	44.95
0.772	44.86
0.775	44.6
0.778	44.23
0.781	44
0.784	43.67
0.787	43.46
0.79	43.2
0.793	42.95
0.796	42.67
0.799	42.34
0.808	41.87
0.82	40.58
0.832	39.52
0.844	38.67
0.856	37.81
0.868	37.05
0.88	36.56
0.892	36.09
0.904	35.81
0.916	35.64
0.928	35.58
0.94	35.55
0.952	35.67
0.964	35.84
0.976	36.08
0.988	36.4
1	36.8
1.012	37.35
1.024	37.93
1.036	38.57
1.048	39.24
1.06	40
1.072	40.76
1.084	41.66
1.096	42.61
1.108	43.53
1.12	44.61
1.132	45.68
1.144	46.77
1.156	47.75
1.168	48.89
1.18	50
1.192	51.06
1.204	52.21
1.216	53.25
1.228	54.23
1.24	55.21
1.252	56.15
1.264	57.11
1.276	57.9
1.288	58.74
1.3	59.37
1.312	60.08
1.324	60.68
1.336	61.28
1.348	61.8
1.36	62.33
1.372	62.74
1.384	63.06
1.396	63.09
1.408	62.96
1.42	62.83
1.432	62.62
1.444	62.12
1.456	61.22
1.468	60.51
1.48	60.47
1.492	61.53
1.504	61.98
1.516	62.19
1.528	62.11
1.54	62.44
1.552	62.61
1.564	62.93
1.576	63.22
1.588	63.43
1.6	63.71
1.612	63.85
1.624	64.06
1.636	64.08
1.648	64.19
1.66	64.29
1.672	64.37
1.684	64.38
1.696	64.46
1.708	64.45
1.72	64.42
1.732	64.26
1.744	64.1
1.756	63.91
1.768	63.79
1.78	63.5
1.792	63.4
1.804	63.03
1.816	62.44
1.828	61.14
1.84	60.39
1.852	60.38
1.864	60.32
1.876	60.34
1.888	60.71
1.9	60.56
1.912	59.81
1.924	59.15
1.936	58.72
1.948	58.68
1.96	58.8
1.972	58.91
1.984	58.98
1.996	59
2.008	58.88
2.02	58.7
2.032	58.67
2.044	58.43
2.056	58.5
2.068	58.61
2.08	58.81
2.092	58.84
2.104	58.81
2.116	58.66
2.128	58.36
2.14	57.75
2.152	57.11
2.164	56.26
2.176	55.25
2.188	54.05
2.2	52.96
2.212	51.4
2.224	49.57
2.236	47.4
2.248	45.67
2.26	44.63
2.272	44.05
2.284	43.82
2.296	44.33
2.308	45.36
2.32	46.48
2.332	47.39
2.344	47.45
2.356	46.91
2.368	45.92
2.38	44.49
2.392	42.95
2.404	41.92
2.416	41.48
2.428	41.57
2.44	41.91
2.452	42.3
2.464	42.46
2.476	42.3
2.488	41.77
2.5	41.07
