Name: Quartz SiO_2
Type: Mineral
Class: Silicates
Subclass: Tectosilicates
Particle Size: 125-500um
Sample No.: TS-1E
Owner: JPL
Description: Crysoprase
Measurement: Hemispherical reflectance
X Units: Wavelength (micrometers)
Y Units: Reflectance (percent)
wavelength	value
15.385	2.356
15.116	2.7241
14.856	2.4732
14.605	2.7628
14.362	2.7613
14.128	2.4888
13.9	3.061
13.68	3.2471
13.467	3.6796
13.26	4.1177
13.06	5.2582
12.866	8.2838
12.677	6.6906
12.494	7.3349
12.316	1.0974
12.143	1.4376
11.974	1.8955
11.811	2.546
11.651	2.8725
11.496	3.1063
11.345	3.4202
11.198	3.6379
11.055	3.8066
10.915	4.1971
10.779	4.3524
10.647	4.8326
10.517	4.9549
10.39	5.38
10.267	5.9716
10.146	6.4246
10.029	6.9462
9.914	8.0092
9.801	9.0614
9.691	10.7418
9.584	12.9212
9.479	17.5166
9.376	28.9706
9.275	37.7284
9.177	37.8735
9.08	37.4411
8.986	36.026
8.893	33.5923
8.803	30.541
8.714	27.8136
8.627	20.3782
8.542	28.1602
8.458	30.1104
8.376	31.6716
8.296	33.7936
8.217	35.9377
8.139	31.287
8.063	20.9884
7.989	13.5825
7.916	7.6102
7.844	4.0705
7.773	2.1892
7.704	1.0978
7.636	0.5262
7.569	0.2663
7.503	0.1498
7.439	0.2118
7.375	0.0511
7.313	0.1342
7.252	0.0774
7.191	0.2053
7.132	0.091
7.073	0.1457
7.016	0.3004
6.96	0.2306
6.904	0.4062
6.849	0.5271
6.795	0.4798
6.742	0.3953
6.69	0.3712
6.639	0.6318
6.588	0.4763
6.538	0.5264
6.489	0.7129
6.441	0.8133
6.393	0.9068
6.346	0.8521
6.3	0.6842
6.254	0.7293
6.209	0.6639
6.165	0.6866
6.121	0.8253
6.078	0.9357
6.036	0.8841
5.994	0.9688
5.953	0.862
5.912	0.92
5.872	1.0445
5.832	1.1346
5.793	1.5027
5.755	1.7792
5.716	1.9734
5.679	1.7474
5.642	1.1585
5.605	1.015
5.569	0.977
5.533	1.1295
5.498	1.2952
5.463	1.4314
5.429	1.3045
5.395	1.0718
5.362	1.0856
5.329	1.0043
5.296	1.0077
5.264	1.1229
5.232	1.1829
5.2	1.5226
5.169	1.4219
5.139	1.4732
5.108	1.4769
5.078	1.3668
5.049	1.3038
5.019	1.3515
4.99	1.3263
4.962	1.5201
4.933	1.9048
4.905	2.8991
4.878	5.9818
4.85	9.112
4.823	11.4368
4.796	13.4627
4.77	14.8999
4.744	16.0118
4.718	16.0317
4.692	14.0542
4.667	14.6634
4.642	17.7815
4.617	20.1736
4.592	21.2558
4.568	21.3257
4.544	19.4282
4.52	16.0278
4.497	12.4034
4.474	11.1596
4.45	11.9393
4.428	13.3735
4.405	15.099
4.383	17.6586
4.361	20.366
4.339	22.348
4.317	22.926
4.296	22.6745
4.274	22.895
4.253	24.5691
4.233	24.4432
4.212	24.7319
4.191	25.0301
4.171	26.2077
4.151	27.2117
4.131	28.2671
4.112	29.5052
4.092	30.8357
4.073	31.7
4.054	32.1111
4.035	32.1736
4.016	31.9481
3.998	32.0422
3.979	32.4381
3.961	33.2354
3.943	33.7806
3.925	33.9703
3.907	33.8955
3.89	33.3027
3.872	32.475
3.855	32.0026
3.838	31.9123
3.821	31.8207
3.804	31.6665
3.787	31.0865
3.771	30.3832
3.754	29.4327
3.738	28.8986
3.722	28.7802
3.706	28.6984
3.69	28.7909
3.675	28.741
3.659	28.325
3.644	27.7015
3.628	26.9787
3.613	26.2123
3.598	25.4024
3.583	24.6696
3.568	23.749
3.554	22.991
3.539	22.1306
3.525	21.0823
3.51	19.9228
3.496	18.7941
3.482	18.1762
3.468	17.3683
3.454	16.4503
3.441	15.3158
3.427	14.373
3.413	13.2854
3.4	12.858
3.387	12.1022
3.373	11.499
3.36	10.9273
3.347	10.4191
3.334	9.8274
3.321	9.3232
3.309	8.7142
3.296	8.0878
3.284	7.6772
3.271	7.167
3.259	6.7123
3.247	6.3877
3.234	5.9326
3.222	5.492
3.21	5.2308
3.199	4.9206
3.187	4.5684
3.175	4.3766
3.163	4.3224
3.152	4.0767
3.14	3.8411
3.129	3.5915
3.118	3.4575
3.107	3.3491
3.095	3.0604
3.084	3.2237
3.073	2.9131
3.063	3.1319
3.052	2.9367
3.041	2.7198
3.03	2.8744
3.02	2.7431
3.009	2.7149
2.999	2.4796
2.988	2.5619
2.978	2.5419
2.968	2.4597
2.958	2.4278
2.948	2.351
2.938	2.4489
2.928	2.4611
2.918	2.3311
2.908	2.349
2.898	2.3657
2.888	2.5167
2.879	2.5362
2.869	2.5949
2.86	2.3715
2.85	2.7396
2.841	2.7422
2.832	2.8716
2.822	2.956
2.813	3.0152
2.804	2.8876
2.795	2.8331
2.786	2.8443
2.777	2.5988
2.768	3.0622
2.759	2.9552
2.751	3.4857
2.742	4.0768
2.733	6.9036
2.725	10.7793
2.716	15.8271
2.707	21.6296
2.699	26.9893
2.691	30.8663
2.682	35.1098
2.674	38.0825
2.666	41.2008
2.658	42.6805
2.649	44.0986
2.641	45.2131
2.633	46.2047
2.625	46.8874
2.617	47.8102
2.609	47.827
2.602	48.1761
2.594	48.7726
2.586	48.4889
2.578	48.5625
2.571	49.2068
2.563	49.6376
2.555	49.6077
2.548	49.9158
2.54	50.1595
2.533	50.6559
2.525	50.8821
2.518	51.4304
2.511	51.7238
2.504	52.212
2.496	52.6562
2.489	53.407
2.482	53.9589
2.475	54.7218
2.468	55.5239
2.461	56.6414
2.454	57.6687
2.447	58.9725
2.44	59.9366
2.433	60.8867
2.426	61.1699
2.419	62.0931
2.413	62.8431
2.406	63.427
2.399	64.416
2.393	65.1346
2.386	65.7918
2.379	65.9718
2.373	66.0949
2.366	66.215
2.36	65.9836
2.354	65.6211
2.347	65.0945
2.341	64.2206
2.334	63.0831
2.328	61.492
2.322	60.5254
2.316	60.345
2.309	59.6094
2.303	60.0329
2.297	60.4017
2.291	60.7198
2.285	61.0866
2.279	61.3997
2.273	61.4454
2.267	61.4589
2.261	61.189
2.255	60.9122
2.249	61.06
2.244	61.071
2.238	61.4766
2.232	61.4985
2.226	61.5856
2.22	61.3312
2.215	61.8515
2.209	61.4141
2.204	63.0606
2.198	64.3322
2.192	65.7609
2.187	67.2855
2.181	68.7356
2.176	70.2155
2.17	71.546
2.165	72.3928
2.159	73.1142
2.154	73.8801
2.149	74.4788
2.143	75.1394
2.138	75.4183
2.133	76.1069
2.128	76.1156
2.122	76.3365
2.117	76.4596
2.112	76.4821
2.107	76.3556
2.102	76.3393
2.097	76.3882
2.091	76.4571
2.086	76.6877
2.081	76.6702
2.076	76.5972
2.071	76.9166
2.066	76.4735
2.062	76.7436
2.057	76.4121
2.052	76.3969
2.047	76.2361
2.042	76.405
2.037	76.0084
2.032	75.768
2.028	75.4491
2.023	75.5375
2.018	74.9372
2.014	74.6833
2.009	74.1822
2.004	73.6866
