Name: Rhodochrosite MnCO_3
Type: Mineral
Class: Carbonates
Particle Size: 45-125um
Sample No.: C-8A
Owner: JPL
Origin: USA, Montana, Silver Bow County, Butte.
Measurement: Hemispherical reflectance
X Units: Wavelength (micrometers)
Y Units: Reflectance (percent)
wavelength	value
2.5	48.0993
2.494	48.9441
2.488	50.5479
2.482	52.2194
2.476	54.3391
2.47	56.4739
2.464	58.3701
2.458	60.0825
2.452	61.4745
2.446	62.7271
2.44	63.8431
2.434	64.8047
2.428	65.5461
2.422	66.2989
2.416	66.9058
2.41	67.7045
2.404	68.1019
2.398	67.9266
2.392	66.7934
2.386	64.3994
2.38	60.9153
2.374	57.1975
2.368	54.5393
2.362	53.2176
2.356	52.9967
2.35	53.5811
2.344	54.3839
2.338	55.2176
2.332	55.8591
2.326	56.4815
2.32	57.2221
2.314	57.9774
2.308	58.8857
2.302	59.9939
2.296	61.2522
2.29	62.6685
2.284	64.0202
2.278	65.1505
2.272	66.1799
2.266	67.0626
2.26	67.9198
2.254	68.6961
2.248	69.3677
2.242	69.9684
2.236	70.5303
2.23	71.047
2.224	71.5395
2.218	71.8979
2.212	72.3369
2.206	72.4898
2.2	72.786
2.194	72.9193
2.188	72.9505
2.182	72.7994
2.176	72.7386
2.17	72.7315
2.164	72.8102
2.158	73.2051
2.152	73.561
2.146	74.0217
2.14	74.3444
2.134	74.4412
2.128	74.3693
2.122	74.3295
2.116	74.1501
2.11	74.0198
2.104	73.8647
2.098	73.8227
2.092	73.8411
2.086	73.9756
2.08	73.9862
2.074	74.0366
2.068	74.033
2.062	74.0547
2.056	74.132
2.05	74.032
2.044	73.9753
2.038	73.7956
2.032	73.5076
2.026	73.0965
2.02	72.4535
2.014	71.8024
2.008	71.4529
2.002	71.5724
1.996	71.8015
1.99	71.8616
1.984	71.8056
1.978	71.6349
1.972	71.6039
1.966	71.5807
1.96	71.5447
1.954	71.4558
1.948	71.4778
1.942	71.3672
1.936	71.4479
1.93	71.4763
1.924	71.5081
1.918	71.7551
1.912	71.8605
1.906	72.0829
1.9	72.0438
1.894	71.8814
1.888	72.3265
1.882	73.2127
1.876	73.9243
1.87	74.3361
1.864	74.7036
1.858	74.9192
1.852	75.1132
1.846	75.304
1.84	75.5059
1.834	75.5863
1.828	75.7292
1.822	75.8324
1.816	75.8909
1.81	75.9536
1.804	76.0077
1.798	76.013
1.792	76.0172
1.786	75.9826
1.78	75.8767
1.774	75.8583
1.768	75.7386
1.762	75.8098
1.756	75.8066
1.75	75.8855
1.744	75.8318
1.738	75.9105
1.732	75.9658
1.726	76.0728
1.72	76.0619
1.714	76.1407
1.708	76.1223
1.702	76.0547
1.696	76.092
1.69	76.058
1.684	76.1175
1.678	76.0813
1.672	76.0748
1.666	76.0392
1.66	76.0102
1.654	75.9755
1.648	76.006
1.642	76.1913
1.636	76.0308
1.63	76.1029
1.624	76.0419
1.618	76.0359
1.612	75.9966
1.606	76.0564
1.6	75.9559
1.594	75.9334
1.588	75.9262
1.582	75.8524
1.576	75.7102
1.57	75.6893
1.564	75.7032
1.558	75.6199
1.552	75.6206
1.546	75.5658
1.54	75.5376
1.534	75.4817
1.528	75.4143
1.522	75.3468
1.516	75.2348
1.51	75.1918
1.504	75.1217
1.498	75.0216
1.492	74.8932
1.486	74.7849
1.48	74.6859
1.474	74.6002
1.468	74.5098
1.462	74.5134
1.456	74.4555
1.45	74.4114
1.444	74.4054
1.438	74.3455
1.432	74.2992
1.426	74.3006
1.42	74.3345
1.414	74.3521
1.408	74.4292
1.402	74.4984
1.396	74.5804
1.39	74.7784
1.384	74.7317
1.378	74.7934
1.372	74.6535
1.366	74.7192
1.36	74.6808
1.354	74.5672
1.348	74.5333
1.342	74.537
1.336	74.5204
1.33	74.5301
1.324	74.4531
1.318	74.4141
1.312	74.4522
1.306	74.3725
1.3	74.3638
1.294	74.3445
1.288	74.3701
1.282	74.2369
1.276	74.3684
1.27	74.2417
1.264	74.2099
1.258	74.2405
1.252	74.2298
1.246	74.2274
1.24	74.2232
1.234	74.1829
1.228	74.145
1.222	74.1516
1.216	74.0812
1.21	74.0983
1.204	74.0783
1.198	74.0902
1.192	74.0476
1.186	74.0212
1.18	74.034
1.174	74.0222
1.168	74.046
1.162	73.9709
1.156	73.9281
1.15	73.892
1.144	73.9288
1.138	73.9101
1.132	73.8533
1.126	73.9166
1.12	73.8324
1.114	73.809
1.108	73.7713
1.102	73.7105
1.096	73.7018
1.09	73.6868
1.084	73.6656
1.078	73.7445
1.072	73.6332
1.066	73.5973
1.06	73.7038
1.054	73.5789
1.048	73.5609
1.042	73.6248
1.036	73.6098
1.03	73.6453
1.024	73.7132
1.018	73.6737
1.012	73.738
1.006	73.7426
1	73.8364
0.994	73.8628
0.988	73.9244
0.982	73.9484
0.976	74.0111
0.97	74.0959
0.964	74.0889
0.958	74.1757
0.952	74.2019
0.946	74.2795
0.94	74.2859
0.934	74.3754
0.928	74.3728
0.922	74.3975
0.916	74.5256
0.91	74.5576
0.904	74.5256
0.898	74.5213
0.892	74.6285
0.886	74.5337
0.88	74.6027
0.874	74.5276
0.868	74.5917
0.862	74.5253
0.856	74.5525
0.85	74.6872
0.844	74.618
0.838	74.6304
0.832	74.6582
0.826	74.6942
0.82	74.6882
0.814	74.6571
0.808	74.6372
0.802	74.6539
0.796	74.5962
0.79	74.5159
0.784	74.5322
0.778	74.5245
0.772	74.4857
0.766	74.4486
0.76	74.3787
0.754	74.4015
0.748	74.3164
0.742	74.2641
0.736	74.2583
0.73	74.1901
0.724	74.1479
0.718	74.074
0.712	74.0555
0.706	73.9545
0.7	73.8997
0.694	73.8321
0.688	73.7664
0.682	73.6691
0.676	73.5867
0.67	73.5136
0.664	73.4012
0.658	73.2782
0.652	73.1534
0.646	73.028
0.64	72.8487
0.634	72.6916
0.628	72.4499
0.622	72.1478
0.616	71.7307
0.61	71.1413
0.604	70.3517
0.598	69.2657
0.592	67.8701
0.586	66.143
0.58	64.2228
0.574	62.2453
0.568	60.3858
0.562	58.8586
0.556	57.7382
0.55	57.2515
0.544	57.3674
0.538	58.0201
0.532	59.1061
0.526	60.4235
0.52	61.7505
0.514	62.8689
0.508	63.6867
0.502	64.1314
0.496	64.2567
0.49	63.9957
0.484	63.2893
0.478	62.0719
0.472	60.1572
0.466	57.8174
0.46	55.5574
0.454	53.7156
0.448	52.3952
0.442	51.9347
0.436	52.4749
0.43	53.7718
0.424	55.0132
0.418	54.7409
0.412	44.1144
0.406	28.0316
0.4	46.6253
