Name: Anatase TiO_2
Type: Mineral
Class: Oxides
Particle Size: 0-45um
Sample No.: O-12A
Owner: JPL
Description: Synthetic anatase.
Measurement: Hemispherical reflectance
X Units: Wavelength (micrometers)
Y Units: Reflectance (percent)
wavelength	value
15.385	0.4366
15.116	0.7051
14.856	0.795
14.605	0.2831
14.362	0.3406
14.128	0.6103
13.9	0.6419
13.68	0.5109
13.467	0.7364
13.26	0.6626
13.06	0.6266
12.866	0.4256
12.677	0.4299
12.494	0.5676
12.316	0.4726
12.143	0.5171
11.974	0.3761
11.811	0.3449
11.651	0.2217
11.496	0.0571
11.345	0.1117
11.198	0.0104
11.055	0.0999
10.915	0.1488
10.779	0.0511
10.647	0.0963
10.517	0.033
10.39	0
10.267	0.1795
10.146	0
10.029	0.2413
9.914	0.0126
9.801	0.1248
9.691	0.0926
9.584	0.1931
9.479	0.2973
9.376	0.3116
9.275	0.5218
9.177	0.4517
9.08	0.4641
8.986	0.765
8.893	0.5305
8.803	0.6967
8.714	0.999
8.627	0.9086
8.542	1.1287
8.458	1.4413
8.376	1.8174
8.296	2.1264
8.217	2.7588
8.139	3.294
8.063	4.0607
7.989	4.8123
7.916	5.3933
7.844	6.2393
7.773	6.9892
7.704	7.8639
7.636	8.6655
7.569	9.6237
7.503	10.2257
7.439	10.8511
7.375	11.3932
7.313	12.25
7.252	13.3068
7.191	14.0658
7.132	15.1005
7.073	15.633
7.016	16.1958
6.96	17.0707
6.904	17.6024
6.849	18.0884
6.795	19.1303
6.742	20.5494
6.69	21.9152
6.639	23.6025
6.588	24.093
6.538	24.498
6.489	25.1945
6.441	24.491
6.393	24.1102
6.346	24.016
6.3	22.9936
6.254	22.4516
6.209	21.5669
6.165	20.7964
6.121	20.1765
6.078	20.6519
6.036	21.9273
5.994	23.9876
5.953	26.2972
5.912	28.6321
5.872	31.2849
5.832	33.5726
5.793	35.0672
5.755	37.0104
5.716	38.3717
5.679	39.2384
5.642	40.2632
5.605	40.4644
5.569	41.015
5.533	41.4496
5.498	41.9379
5.463	42.5275
5.429	42.8299
5.395	43.0404
5.362	43.3343
5.329	43.5522
5.296	44.0344
5.264	44.1896
5.232	44.5348
5.2	44.793
5.169	44.9728
5.139	45.1852
5.108	45.3839
5.078	45.5714
5.049	45.7181
5.019	45.8894
4.99	45.9925
4.962	46.1937
4.933	46.3481
4.905	46.3836
4.878	46.6214
4.85	46.8851
4.823	46.9532
4.796	47.2125
4.77	47.4558
4.744	47.7756
4.718	48.0543
4.692	48.3503
4.667	48.7679
4.642	49.0203
4.617	49.2991
4.592	49.5639
4.568	49.7234
4.544	50.0397
4.52	50.1462
4.497	50.488
4.474	50.5771
4.45	50.7241
4.428	50.8599
4.405	51.0496
4.383	51.2289
4.361	51.2522
4.339	51.3664
4.317	51.4633
4.296	51.6118
4.274	51.6482
4.253	51.6936
4.233	51.841
4.212	51.7765
4.191	51.7233
4.171	51.7562
4.151	51.757
4.131	51.7565
4.112	51.8815
4.092	51.929
4.073	51.8576
4.054	51.9263
4.035	51.9905
4.016	51.9579
3.998	51.9917
3.979	51.9794
3.961	51.8891
3.943	51.8916
3.925	51.7869
3.907	51.6524
3.89	51.6084
3.872	51.4677
3.855	51.2577
3.838	51.0694
3.821	50.8035
3.804	50.5837
3.787	50.1529
3.771	49.9514
3.754	49.533
3.738	49.2575
3.722	48.8396
3.706	48.4033
3.69	47.9682
3.675	47.5597
3.659	47.0924
3.644	46.623
3.628	46.2047
3.613	45.8565
3.598	45.3002
3.583	44.8752
3.568	44.4571
3.554	43.9296
3.539	43.371
3.525	43.1681
3.51	42.5431
3.496	42.0479
3.482	41.6818
3.468	41.1581
3.454	40.7474
3.441	40.3721
3.427	39.9728
3.413	39.5255
3.4	39.0423
3.387	38.557
3.373	38.2198
3.36	37.746
3.347	37.2938
3.334	36.9651
3.321	36.6249
3.309	36.2862
3.296	35.779
3.284	35.5726
3.271	35.2047
3.259	34.8158
3.247	34.517
3.234	34.1159
3.222	33.8557
3.21	33.7519
3.199	33.3445
3.187	33.0912
3.175	32.8045
3.163	32.6297
3.152	32.4483
3.14	32.2323
3.129	31.9239
3.118	31.8758
3.107	31.5526
3.095	31.5312
3.084	31.2991
3.073	31.2498
3.063	31.1981
3.052	31.162
3.041	30.7219
3.03	30.8484
3.02	30.6698
3.009	30.5137
2.999	30.5371
2.988	30.6194
2.978	30.4088
2.968	30.4286
2.958	30.4257
2.948	30.5642
2.938	30.5561
2.928	30.6705
2.918	30.9522
2.908	31.2541
2.898	31.5449
2.888	32.0447
2.879	32.4986
2.869	33.096
2.86	33.6423
2.85	34.359
2.841	35.042
2.832	35.8752
2.822	36.7238
2.813	38.0982
2.804	39.4362
2.795	40.5058
2.786	42.279
2.777	44.0662
2.768	46.1074
2.759	48.1586
2.751	50.5514
2.742	53.3159
2.733	54.9393
2.725	56.5463
2.716	55.6212
2.707	55.1691
2.699	58.3727
2.691	64.5692
2.682	67.8694
2.674	70.0515
2.666	73.9212
2.658	76.4158
2.649	78.6567
2.641	79.9858
2.633	80.7846
2.625	81.344
2.617	82.2207
2.609	82.1839
2.602	82.4885
2.594	83.4138
2.586	82.8572
2.578	83.0509
2.571	83.2782
2.563	83.5798
2.555	83.2388
2.548	83.5006
2.54	83.6348
2.533	83.7974
2.525	83.7386
2.518	83.9439
2.511	84.2712
2.504	84.2453
2.496	84.517
2.489	84.5103
2.482	84.7659
2.475	85.0001
2.468	85.1221
2.461	85.2737
2.454	85.4259
2.447	85.7047
2.44	85.8327
2.433	85.8637
2.426	86.1664
2.419	86.2844
2.413	86.5233
2.406	86.6001
2.399	86.9409
2.393	87.016
2.386	87.1198
2.379	87.3367
2.373	87.4717
2.366	87.6039
2.36	87.8244
2.354	87.7251
2.347	88.0437
2.341	88.0398
2.334	88.2211
2.328	88.2801
2.322	88.3975
2.316	88.655
2.309	88.6436
2.303	88.6344
2.297	88.7678
2.291	89.0641
2.285	89.0107
2.279	89.1932
2.273	89.1841
2.267	89.2902
2.261	89.4116
2.255	89.3486
2.249	89.5171
2.244	89.4244
2.238	89.4784
2.232	89.5524
2.226	89.8291
2.22	89.7872
2.215	89.6558
2.209	89.8861
2.204	89.9206
2.198	89.9223
2.192	89.9604
2.187	90.2146
2.181	90.2279
2.176	90.2841
2.17	90.5997
2.165	90.4134
2.159	90.4672
2.154	90.5934
2.149	90.7161
2.143	90.6067
2.138	90.7935
2.133	90.7327
2.128	90.8448
2.122	90.9011
2.117	91.2206
2.112	91.4389
2.107	91.1384
2.102	91.2362
2.097	90.9907
2.091	91.4122
2.086	91.463
2.081	90.943
2.076	91.0837
2.071	91.0392
2.066	91.3498
2.062	91.4439
2.057	91.2005
2.052	91.362
2.047	91.2697
2.042	90.9999
2.037	91.2581
2.032	91.2038
2.028	91.319
2.023	91.0547
2.018	91.0194
2.014	91.2617
2.009	91.0952
2.004	91.0115
