Name: Quartz SiO_2
Type: Mineral
Class: Silicates
Subclass: Tectosilicates
Particle Size: 0-45um
Sample No.: TS-1E
Owner: JPL
Origin: Unknown.
Description: Crysoprase
Measurement: Hemispherical reflectance
X Units: Wavelength (micrometers)
Y Units: Reflectance (percent)
wavelength	value
2.5	65.5969
2.494	65.5479
2.488	65.7456
2.482	65.7289
2.476	65.981
2.47	66.0975
2.464	66.3529
2.458	66.5351
2.452	66.7721
2.446	67.0398
2.44	67.2032
2.434	67.5175
2.428	67.3863
2.422	67.5259
2.416	67.6845
2.41	67.8087
2.404	67.9059
2.398	67.9759
2.392	68.1884
2.386	68.3497
2.38	68.4233
2.374	68.5832
2.368	68.6866
2.362	68.7675
2.356	68.7974
2.35	68.6667
2.344	68.7245
2.338	68.6137
2.332	68.4358
2.326	68.311
2.32	68.172
2.314	68.0787
2.308	68.0069
2.302	67.9469
2.296	68.0481
2.29	68.0735
2.284	68.1024
2.278	68.0675
2.272	68.1033
2.266	68.0463
2.26	68.045
2.254	67.9918
2.248	67.9975
2.242	68.0807
2.236	68.1572
2.23	68.132
2.224	68.0859
2.218	68.1777
2.212	68.3771
2.206	68.5841
2.2	68.8123
2.194	69.0332
2.188	69.3508
2.182	69.5705
2.176	69.7936
2.17	70.0907
2.164	70.3127
2.158	70.4626
2.152	70.6594
2.146	70.7128
2.14	70.7665
2.134	70.7699
2.128	70.6545
2.122	70.3681
2.116	70.2008
2.11	69.9887
2.104	69.7597
2.098	69.6925
2.092	69.6991
2.086	69.7918
2.08	69.9001
2.074	69.896
2.068	69.8974
2.062	70.0229
2.056	70.0718
2.05	70.021
2.044	70.1667
2.038	70.176
2.032	70.198
2.026	70.1738
2.02	70.0823
2.014	70.0676
2.008	70.0112
2.002	70.0158
1.996	70.0068
1.99	69.8063
1.984	69.7222
1.978	69.5863
1.972	69.5204
1.966	69.3674
1.96	69.3489
1.954	69.1815
1.948	69.1288
1.942	69.1101
1.936	69.064
1.93	69.0456
1.924	69.0641
1.918	69.0516
1.912	69.0582
1.906	69.1524
1.9	69.4997
1.894	69.8896
1.888	70.2885
1.882	70.6222
1.876	70.8154
1.87	70.8897
1.864	70.9806
1.858	71.0082
1.852	71.0402
1.846	71.0555
1.84	71.1901
1.834	71.2129
1.828	71.1961
1.822	71.1094
1.816	71.1917
1.81	71.1578
1.804	71.2272
1.798	71.1387
1.792	71.1998
1.786	71.1915
1.78	71.1656
1.774	71.1612
1.768	71.1832
1.762	71.1274
1.756	71.1716
1.75	71.2398
1.744	71.2032
1.738	71.2513
1.732	71.2702
1.726	71.3264
1.72	71.2823
1.714	71.3236
1.708	71.2523
1.702	71.3337
1.696	71.2986
1.69	71.2368
1.684	71.2547
1.678	71.3254
1.672	71.3268
1.666	71.2638
1.66	71.2564
1.654	71.3078
1.648	71.1958
1.642	71.2395
1.636	71.2712
1.63	71.2114
1.624	71.3626
1.618	71.3039
1.612	71.2566
1.606	71.2737
1.6	71.2701
1.594	71.313
1.588	71.2634
1.582	71.2654
1.576	71.2563
1.57	71.2392
1.564	71.2412
1.558	71.2124
1.552	71.2326
1.546	71.1795
1.54	71.1332
1.534	71.1091
1.528	71.2223
1.522	71.0744
1.516	71.0959
1.51	71.1212
1.504	71.1011
1.498	71.1181
1.492	70.9894
1.486	70.9979
1.48	70.9249
1.474	70.923
1.468	70.8615
1.462	70.8542
1.456	70.7885
1.45	70.8722
1.444	70.824
1.438	70.7573
1.432	70.7394
1.426	70.6469
1.42	70.5923
1.414	70.2756
1.408	70.4929
1.402	70.8164
1.396	70.9591
1.39	71.1421
1.384	71.3231
1.378	71.1718
1.372	71.1885
1.366	71.2479
1.36	71.1742
1.354	71.164
1.348	71.0968
1.342	71.1257
1.336	71.1348
1.33	71.0431
1.324	71.007
1.318	70.9732
1.312	70.9427
1.306	70.9529
1.3	70.8856
1.294	70.8701
1.288	70.7569
1.282	70.7307
1.276	70.755
1.27	70.7048
1.264	70.631
1.258	70.5874
1.252	70.5046
1.246	70.4867
1.24	70.405
1.234	70.3812
1.228	70.3928
1.222	70.3504
1.216	70.2683
1.21	70.2893
1.204	70.1716
1.198	70.1631
1.192	70.1117
1.186	70.096
1.18	70.0296
1.174	70.054
1.168	70.0197
1.162	69.9616
1.156	69.9317
1.15	69.8884
1.144	69.8999
1.138	69.9403
1.132	69.8764
1.126	69.8268
1.12	69.861
1.114	69.8583
1.108	69.86
1.102	69.8217
1.096	69.7791
1.09	69.7981
1.084	69.7886
1.078	69.7975
1.072	69.8015
1.066	69.8373
1.06	69.8795
1.054	69.8044
1.048	69.8509
1.042	69.8494
1.036	69.9198
1.03	70.0097
1.024	69.933
1.018	69.9967
1.012	69.9921
1.006	69.9919
1	69.9963
0.994	70.0977
0.988	70.1016
0.982	70.0877
0.976	70.1516
0.97	70.1239
0.964	70.1326
0.958	70.1785
0.952	70.2264
0.946	70.2402
0.94	70.2494
0.934	70.3438
0.928	70.2778
0.922	70.2699
0.916	70.3432
0.91	70.2861
0.904	70.3317
0.898	70.353
0.892	70.3415
0.886	70.3669
0.88	70.3975
0.874	70.3716
0.868	70.3966
0.862	70.3658
0.856	70.5001
0.85	70.4838
0.844	70.5077
0.838	70.5055
0.832	70.517
0.826	70.5118
0.82	70.4676
0.814	70.3671
0.808	70.3463
0.802	70.3132
0.796	70.2354
0.79	70.1516
0.784	70.1127
0.778	69.9678
0.772	69.8416
0.766	69.7379
0.76	69.6436
0.754	69.5431
0.748	69.4199
0.742	69.3425
0.736	69.2453
0.73	69.1824
0.724	69.1118
0.718	69.0376
0.712	69.0028
0.706	68.8967
0.7	68.8242
0.694	68.7377
0.688	68.6652
0.682	68.5942
0.676	68.4869
0.67	68.4144
0.664	68.3407
0.658	68.3053
0.652	68.2798
0.646	68.2572
0.64	68.2841
0.634	68.3498
0.628	68.4337
0.622	68.5146
0.616	68.6105
0.61	68.6965
0.604	68.7697
0.598	68.8542
0.592	68.9285
0.586	68.9523
0.58	68.947
0.574	68.9257
0.568	68.8733
0.562	68.8032
0.556	68.7274
0.55	68.6216
0.544	68.5172
0.538	68.3946
0.532	68.278
0.526	68.1372
0.52	67.9816
0.514	67.841
0.508	67.6793
0.502	67.5253
0.496	67.3668
0.49	67.1899
0.484	67.048
0.478	66.8629
0.472	66.6816
0.466	66.5238
0.46	66.2842
0.454	66.1074
0.448	65.8465
0.442	65.5853
0.436	65.2583
0.43	64.8516
0.424	64.3866
0.418	63.8596
0.412	63.3588
0.406	62.9185
0.4	62.4761
