Name: Corrensite (Mg,Fe)_9(Si,Al)_8O_20(OH)_10._xH_2O
Type: Mineral
Class: Silicates
Subclass: Phyllosilicates
Particle Size: 45-125um
Sample No.: PS-10A
Owner: JPL
Wavelength Range: VNIR-SWIR
Origin: USA, Washington, Packwood
Measurement: Hemispherical reflectance
X Units: Wavelength (micrometers)
Y Units: Reflectance (percent)
wavelength	value
0.4	7.42
0.403	7.58
0.406	7.75
0.409	7.8
0.412	7.96
0.415	8.15
0.418	8.34
0.421	8.43
0.424	8.75
0.427	8.86
0.43	9.14
0.433	9.45
0.436	9.97
0.439	10
0.442	10.25
0.445	10.62
0.448	10.85
0.451	10.95
0.454	11.16
0.457	11.09
0.46	11.34
0.463	11.42
0.466	11.57
0.469	11.65
0.472	11.75
0.475	11.95
0.478	12.11
0.481	12.25
0.484	12.43
0.487	12.61
0.49	12.97
0.493	13.19
0.496	13.49
0.499	13.74
0.502	14.06
0.505	14.44
0.508	14.62
0.511	15.17
0.514	15.45
0.517	15.84
0.52	16.16
0.523	16.39
0.526	16.57
0.529	16.93
0.532	17.18
0.535	17.26
0.538	17.51
0.541	17.79
0.544	17.74
0.547	18.09
0.55	18.36
0.553	18.25
0.556	18.47
0.559	18.53
0.562	18.89
0.565	19.02
0.568	19.08
0.571	19.11
0.574	19.14
0.577	19.22
0.58	19.35
0.583	19.46
0.586	19.41
0.589	19.59
0.592	19.62
0.595	19.67
0.598	19.83
0.601	19.91
0.604	20.05
0.607	20.09
0.61	20.25
0.613	20.22
0.616	20.37
0.619	20.31
0.622	20.45
0.625	20.43
0.628	20.58
0.631	20.68
0.634	20.69
0.637	20.74
0.64	20.81
0.643	20.88
0.646	20.96
0.649	21.12
0.652	21.14
0.655	21.23
0.658	21.26
0.661	21.38
0.664	21.31
0.667	21.45
0.67	21.44
0.673	21.54
0.676	21.54
0.679	21.6
0.682	21.75
0.685	21.85
0.688	21.93
0.691	21.9
0.694	21.97
0.697	21.9
0.7	22.18
0.703	22.23
0.706	22.36
0.709	22.53
0.712	22.53
0.715	22.61
0.718	22.75
0.721	22.76
0.724	22.93
0.727	23.06
0.73	23.18
0.733	23.29
0.736	23.45
0.739	23.46
0.742	23.61
0.745	23.85
0.748	23.93
0.751	24.11
0.754	24.39
0.757	24.32
0.76	24.48
0.763	24.71
0.766	24.81
0.769	25.02
0.772	25.19
0.775	25.19
0.778	25.29
0.781	25.4
0.784	25.6
0.787	25.72
0.79	25.82
0.793	25.85
0.796	25.93
0.799	26.08
0.808	26.65
0.82	26.57
0.832	26.55
0.844	26.42
0.856	26.28
0.868	26.12
0.88	26.08
0.892	26.2
0.904	26.29
0.916	26.45
0.928	26.73
0.94	27
0.952	27.21
0.964	27.56
0.976	27.77
0.988	27.97
1	28.1
1.012	28.29
1.024	28.34
1.036	28.55
1.048	28.6
1.06	28.82
1.072	29.02
1.084	29.26
1.096	29.66
1.108	30.01
1.12	30.38
1.132	30.93
1.144	31.35
1.156	31.93
1.168	32.49
1.18	33.13
1.192	33.75
1.204	34.4
1.216	35.11
1.228	35.84
1.24	36.47
1.252	37.28
1.264	37.92
1.276	38.61
1.288	39.45
1.3	40
1.312	40.72
1.324	41.39
1.336	41.93
1.348	42.66
1.36	43.25
1.372	43.63
1.384	43.31
1.396	41.94
1.408	41.92
1.42	42.52
1.432	43.25
1.444	44
1.456	44.91
1.468	45.8
1.48	46.52
1.492	47.45
1.504	48.08
1.516	48.85
1.528	49.45
1.54	49.9
1.552	50.52
1.564	50.91
1.576	51.45
1.588	52
1.6	52.4
1.612	52.96
1.624	53.29
1.636	53.67
1.648	54.08
1.66	54.46
1.672	54.7
1.684	55.16
1.696	55.46
1.708	55.67
1.72	55.94
1.732	56.1
1.744	56.22
1.756	56.33
1.768	56.48
1.78	56.54
1.792	56.75
1.804	56.81
1.816	56.92
1.828	57.02
1.84	56.86
1.852	56.47
1.864	55.61
1.876	53.51
1.888	49.87
1.9	45.08
1.912	42.09
1.924	42.24
1.936	43.44
1.948	44.49
1.96	45.42
1.972	46.51
1.984	47.62
1.996	48.69
2.008	49.7
2.02	50.8
2.032	51.71
2.044	52.46
2.056	53.32
2.068	53.85
2.08	54.48
2.092	54.88
2.104	55.24
2.116	55.43
2.128	55.53
2.14	55.45
2.152	55.36
2.164	54.98
2.176	54.57
2.188	53.87
2.2	53.32
2.212	52.64
2.224	51.75
2.236	50.07
2.248	48.66
2.26	47.45
2.272	46.6
2.284	45.54
2.296	44.71
2.308	44.07
2.32	43.67
2.332	43.11
2.344	42.71
2.356	42.53
2.368	42.68
2.38	42.65
2.392	42.39
2.404	42.1
2.416	41.68
2.428	41.12
2.44	40.5
2.452	39.54
2.464	38.75
2.476	37.89
2.488	37.44
2.5	37.17
