Name: Calcite CaCO_3
Type: Mineral
Class: Carbonates
Particle Size: 0-45um
Sample No.: C-3E
Owner: JPL
Wavelength Range: VNIR-SWIR
Measurement: Hemispherical reflectance
X Units: Wavelength (micrometers)
Y Units: Reflectance (percent)
wavelength	value
0.4	78.19
0.403	78.42
0.406	79.1
0.409	78.87
0.412	79.62
0.415	79.45
0.418	79.68
0.421	79.79
0.424	80.02
0.427	80.47
0.43	80.47
0.433	81.05
0.436	80.59
0.439	81.34
0.442	81.22
0.445	81.62
0.448	81.51
0.451	81.67
0.454	81.63
0.457	81.86
0.46	82.1
0.463	82.22
0.466	82.28
0.469	82.39
0.472	82.45
0.475	82.4
0.478	82.76
0.481	82.47
0.484	82.99
0.487	82.82
0.49	83.23
0.493	82.9
0.496	83.18
0.499	83.14
0.502	83.37
0.505	83.6
0.508	83.42
0.511	83.76
0.514	83.76
0.517	83.87
0.52	83.7
0.523	84.05
0.526	83.82
0.529	84.05
0.532	83.93
0.535	83.93
0.538	84.16
0.541	84.05
0.544	84.22
0.547	83.87
0.55	84.45
0.553	84.28
0.556	84.62
0.559	84.45
0.562	84.62
0.565	84.91
0.568	84.8
0.571	84.68
0.574	84.57
0.577	84.34
0.58	84.91
0.583	84.39
0.586	84.68
0.589	84.62
0.592	84.74
0.595	84.68
0.598	84.8
0.601	84.91
0.604	84.85
0.607	85.2
0.61	84.68
0.613	85.14
0.616	84.8
0.619	85.03
0.622	84.8
0.625	85.14
0.628	84.91
0.631	85.08
0.634	85.14
0.637	85.03
0.64	85.08
0.643	84.97
0.646	85.42
0.649	85.2
0.652	85.26
0.655	85.14
0.658	85.59
0.661	84.97
0.664	85.42
0.667	85.2
0.67	85.65
0.673	85.31
0.676	85.65
0.679	85.36
0.682	85.59
0.685	85.59
0.688	85.59
0.691	85.71
0.694	85.65
0.697	85.94
0.7	85.71
0.703	85.59
0.706	85.65
0.709	85.65
0.712	85.88
0.715	85.88
0.718	86.05
0.721	85.77
0.724	86.28
0.727	85.82
0.73	86.11
0.733	85.82
0.736	86.28
0.739	85.94
0.742	86.05
0.745	86.34
0.748	86.17
0.751	86.69
0.754	86.23
0.757	86.46
0.76	86.23
0.763	86.51
0.766	86.34
0.769	86.28
0.772	86.28
0.775	86.11
0.778	86.57
0.781	86.11
0.784	86.46
0.787	86.4
0.79	86.4
0.793	86.74
0.796	86.23
0.799	86.51
0.808	86.46
0.82	86.57
0.832	86.57
0.844	86.57
0.856	86.63
0.868	86.63
0.88	86.57
0.892	86.46
0.904	86.57
0.916	86.46
0.928	86.4
0.94	86.4
0.952	86.51
0.964	86.46
0.976	86.46
0.988	86.28
1	86.28
1.012	86.28
1.024	86.23
1.036	86.28
1.048	86.23
1.06	86
1.072	86
1.084	86.11
1.096	86.05
1.108	85.88
1.12	86.05
1.132	86.23
1.144	86
1.156	86.04
1.168	85.91
1.18	86.12
1.192	86.21
1.204	86.02
1.216	86.02
1.228	86.02
1.24	86.08
1.252	86.02
1.264	86.12
1.276	86.1
1.288	85.89
1.3	85.94
1.312	86.15
1.324	86.01
1.336	86.04
1.348	86.02
1.36	86.08
1.372	86.14
1.384	86.02
1.396	85.91
1.408	85.87
1.42	86
1.432	85.96
1.444	85.99
1.456	86.06
1.468	86.06
1.48	86.22
1.492	86.28
1.504	86.17
1.516	86.28
1.528	86.39
1.54	86.28
1.552	86.39
1.564	86.28
1.576	86.39
1.588	86.33
1.6	86.51
1.612	86.44
1.624	86.29
1.636	86.16
1.648	86.25
1.66	86.23
1.672	86.27
1.684	86.36
1.696	86.35
1.708	86.34
1.72	86.22
1.732	86.34
1.744	86.22
1.756	86.28
1.768	86.28
1.78	86.39
1.792	86.39
1.804	86.25
1.816	86.17
1.828	86.15
1.84	85.88
1.852	85.64
1.864	85.28
1.876	85.04
1.888	85.12
1.9	85.27
1.912	85.2
1.924	85.29
1.936	85.39
1.948	85.24
1.96	85.08
1.972	84.85
1.984	84.84
1.996	84.61
2.008	85.01
2.02	85.68
2.032	85.88
2.044	86.02
2.056	86.25
2.068	86.15
2.08	86.1
2.092	86.05
2.104	86.22
2.116	86.22
2.128	86
2.14	85.62
2.152	85.3
2.164	85.27
2.176	85.36
2.188	85.28
2.2	85.2
2.212	84.71
2.224	84.44
2.236	83.66
2.248	82.9
2.26	81.86
2.272	80.6
2.284	79.04
2.296	77.61
2.308	76.41
2.32	75.04
2.332	74.23
2.344	74.58
2.356	76.99
2.368	80
2.38	82.2
2.392	82.95
2.404	83
2.416	82.81
2.428	81.84
2.44	80.72
2.452	78.88
2.464	76.64
2.476	74.19
2.488	71.84
2.5	69.78
