Name: Andesine (Feldspar) (NaSi,CaAl)AlSi_2O_8
Type: Mineral
Class: Silicates
Subclass: Tectosilicates
Particle Size: 45-125um
Sample No.: TS-4A
Owner: JPL
Wavelength Range: VNIR-SWIR
Measurement: Hemispherical reflectance
X Units: Wavelength (micrometers)
Y Units: Reflectance (percent)
wavelength	value
0.4	63.61
0.403	64.21
0.406	64.51
0.409	64.94
0.412	65.26
0.415	65.8
0.418	65.85
0.421	66.31
0.424	66.91
0.427	67.22
0.43	67.57
0.433	68.25
0.436	68.74
0.439	68.95
0.442	69.41
0.445	69.75
0.448	70.12
0.451	70.28
0.454	70.78
0.457	70.78
0.46	71.03
0.463	71.36
0.466	71.63
0.469	71.62
0.472	71.81
0.475	72.16
0.478	72.37
0.481	72.55
0.484	72.83
0.487	72.97
0.49	73.07
0.493	73.38
0.496	73.71
0.499	73.94
0.502	74.11
0.505	74.45
0.508	74.67
0.511	74.76
0.514	75.16
0.517	75.42
0.52	75.61
0.523	75.92
0.526	76.18
0.529	76.26
0.532	76.51
0.535	76.56
0.538	76.81
0.541	76.82
0.544	77.09
0.547	77.25
0.55	77.46
0.553	77.57
0.556	77.76
0.559	77.86
0.562	78.44
0.565	78.32
0.568	78.23
0.571	78.36
0.574	78.22
0.577	78.1
0.58	78.16
0.583	78.27
0.586	78.47
0.589	78.36
0.592	78.46
0.595	78.67
0.598	78.66
0.601	78.68
0.604	78.71
0.607	78.97
0.61	78.75
0.613	78.75
0.616	78.72
0.619	78.84
0.622	78.81
0.625	78.74
0.628	78.74
0.631	78.88
0.634	78.95
0.637	78.89
0.64	78.89
0.643	79.05
0.646	78.92
0.649	78.98
0.652	79.14
0.655	79.11
0.658	79.12
0.661	78.99
0.664	79.19
0.667	79.19
0.67	79.13
0.673	79.11
0.676	79.29
0.679	79.21
0.682	79.25
0.685	79.39
0.688	79.34
0.691	79.28
0.694	79.44
0.697	79.51
0.7	79.37
0.703	79.51
0.706	79.43
0.709	79.54
0.712	79.45
0.715	79.45
0.718	79.51
0.721	79.68
0.724	79.57
0.727	79.64
0.73	79.64
0.733	79.72
0.736	79.68
0.739	79.74
0.742	79.73
0.745	79.64
0.748	79.77
0.751	79.71
0.754	79.74
0.757	79.78
0.76	79.82
0.763	79.7
0.766	79.81
0.769	79.86
0.772	79.73
0.775	79.85
0.778	79.79
0.781	79.79
0.784	79.93
0.787	80.03
0.79	79.93
0.793	79.87
0.796	80.01
0.799	80.17
0.808	79.78
0.82	79.72
0.832	79.76
0.844	79.83
0.856	79.8
0.868	79.72
0.88	79.58
0.892	79.64
0.904	79.68
0.916	79.57
0.928	79.45
0.94	79.33
0.952	79.26
0.964	79.22
0.976	78.92
0.988	78.63
1	78.5
1.012	78.25
1.024	77.78
1.036	77.44
1.048	76.91
1.06	76.53
1.072	76.22
1.084	75.79
1.096	75.28
1.108	74.79
1.12	74.6
1.132	74.18
1.144	73.79
1.156	73.39
1.168	72.96
1.18	72.67
1.192	72.44
1.204	72.2
1.216	72
1.228	71.81
1.24	71.66
1.252	71.56
1.264	71.45
1.276	71.4
1.288	71.4
1.3	71.41
1.312	71.49
1.324	71.67
1.336	71.59
1.348	71.71
1.36	71.99
1.372	72.06
1.384	72.12
1.396	71.57
1.408	71.15
1.42	72.13
1.432	72.89
1.444	73.3
1.456	73.79
1.468	74.06
1.48	74.56
1.492	74.97
1.504	75.19
1.516	75.6
1.528	75.92
1.54	76.31
1.552	76.57
1.564	76.82
1.576	76.97
1.588	77.25
1.6	77.64
1.612	77.73
1.624	77.87
1.636	78.02
1.648	78.1
1.66	78.29
1.672	78.35
1.684	78.5
1.696	78.52
1.708	78.72
1.72	78.8
1.732	78.81
1.744	78.65
1.756	78.77
1.768	78.91
1.78	78.91
1.792	78.91
1.804	79.06
1.816	79.15
1.828	79.14
1.84	79.15
1.852	79.06
1.864	79.01
1.876	78.61
1.888	77.75
1.9	76.45
1.912	76
1.924	76.37
1.936	76.86
1.948	77.1
1.96	77.45
1.972	77.79
1.984	78.3
1.996	78.63
2.008	78.98
2.02	79.31
2.032	79.58
2.044	79.85
2.056	79.89
2.068	80.06
2.08	80.14
2.092	80.33
2.104	80.43
2.116	80.51
2.128	80.54
2.14	80.48
2.152	80.01
2.164	79.34
2.176	78.42
2.188	77.3
2.2	77.14
2.212	77.69
2.224	78.53
2.236	78.99
2.248	79.1
2.26	79.3
2.272	79.33
2.284	79.27
2.296	79.04
2.308	78.7
2.32	78.35
2.332	77.96
2.344	77.65
2.356	77.62
2.368	77.53
2.38	77.43
2.392	77.14
2.404	76.92
2.416	76.55
2.428	76.13
2.44	75.82
2.452	75.49
2.464	75.32
2.476	75.27
2.488	75.42
2.5	75.48
