Name: Borax Na_2B_4O_5(OH)_4.8H_2O
Type: Mineral
Class: Borates
Particle Size: 0-45um
Sample No.: B-6A
Owner: JPL
Wavelength Range: VNIR-SWIR
Origin: USA, California, Kern County, Boron
Measurement: Hemispherical reflectance
X Units: Wavelength (micrometers)
Y Units: Reflectance (percent)
wavelength	value
0.4	86.19
0.403	86.32
0.406	86.4
0.409	86.35
0.412	86.45
0.415	86.45
0.418	86.6
0.421	86.45
0.424	86.71
0.427	86.77
0.43	86.96
0.433	87
0.436	87.05
0.439	87.24
0.442	87.2
0.445	87.31
0.448	87.37
0.451	87.37
0.454	87.47
0.457	87.65
0.46	87.71
0.463	87.87
0.466	87.83
0.469	88.03
0.472	88.09
0.475	88.39
0.478	88.15
0.481	88.47
0.484	88.41
0.487	88.54
0.49	88.63
0.493	88.5
0.496	88.65
0.499	88.62
0.502	88.74
0.505	88.74
0.508	88.91
0.511	89.02
0.514	88.88
0.517	89.21
0.52	89.22
0.523	89.17
0.526	89.24
0.529	89.11
0.532	89.27
0.535	89.2
0.538	89.37
0.541	89.19
0.544	89.15
0.547	89.35
0.55	89.49
0.553	89.32
0.556	89.43
0.559	89.35
0.562	89.74
0.565	89.81
0.568	89.69
0.571	89.63
0.574	89.48
0.577	89.54
0.58	89.49
0.583	89.32
0.586	89.55
0.589	89.49
0.592	89.72
0.595	89.5
0.598	89.57
0.601	89.53
0.604	89.84
0.607	89.82
0.61	89.77
0.613	89.59
0.616	89.59
0.619	89.59
0.622	89.66
0.625	89.64
0.628	89.72
0.631	89.65
0.634	89.77
0.637	89.58
0.64	89.71
0.643	89.65
0.646	89.78
0.649	89.87
0.652	89.59
0.655	89.77
0.658	89.77
0.661	89.71
0.664	89.82
0.667	89.78
0.67	89.83
0.673	89.77
0.676	89.81
0.679	89.78
0.682	89.83
0.685	89.84
0.688	89.82
0.691	89.78
0.694	89.88
0.697	89.83
0.7	89.82
0.703	89.84
0.706	89.82
0.709	89.78
0.712	89.83
0.715	89.78
0.718	89.82
0.721	89.78
0.724	89.55
0.727	89.78
0.73	89.89
0.733	89.84
0.736	89.78
0.739	89.65
0.742	89.73
0.745	89.72
0.748	89.71
0.751	89.79
0.754	89.55
0.757	89.72
0.76	89.78
0.763	89.79
0.766	89.84
0.769	89.62
0.772	89.62
0.775	89.78
0.778	89.79
0.781	89.62
0.784	89.62
0.787	89.74
0.79	89.8
0.793	89.78
0.796	89.79
0.799	89.94
0.808	89.84
0.82	89.89
0.832	89.89
0.844	89.94
0.856	89.94
0.868	89.99
0.88	89.98
0.892	89.92
0.904	89.99
0.916	89.81
0.928	89.76
0.94	89.5
0.952	89.26
0.964	88.78
0.976	88.38
0.988	88.56
1	88.66
1.012	88.99
1.024	89.03
1.036	89.14
1.048	89.22
1.06	89.27
1.072	89.43
1.084	89.32
1.096	89.16
1.108	88.88
1.12	88.79
1.132	88.56
1.144	87.44
1.156	85.66
1.168	85.9
1.18	85.79
1.192	85.73
1.204	85.63
1.216	85.49
1.228	85.37
1.24	85.28
1.252	85.09
1.264	84.88
1.276	84.54
1.288	84.9
1.3	85.18
1.312	84.82
1.324	84.01
1.336	82.89
1.348	81.67
1.36	80.6
1.372	79.44
1.384	77.45
1.396	74.18
1.408	68.92
1.42	63.82
1.432	64.53
1.444	63.63
1.456	61.75
1.468	60.37
1.48	60.27
1.492	61.89
1.504	63.49
1.516	63.57
1.528	62.79
1.54	62.08
1.552	61.5
1.564	61.52
1.576	61.76
1.588	61.81
1.6	61.42
1.612	61.09
1.624	60.39
1.636	59.94
1.648	59.21
1.66	58.55
1.672	58.08
1.684	57.67
1.696	57.39
1.708	57.25
1.72	57.33
1.732	57.29
1.744	57.08
1.756	56.78
1.768	56.12
1.78	55.29
1.792	54.79
1.804	54.23
1.816	53.71
1.828	53.23
1.84	52.66
1.852	51.92
1.864	50.35
1.876	47.53
1.888	42.7
1.9	36.37
1.912	32.7
1.924	31.74
1.936	32.35
1.948	33.79
1.96	35.02
1.972	35.83
1.984	36.3
1.996	36.9
2.008	37.51
2.02	38.17
2.032	38.66
2.044	39.03
2.056	39.56
2.068	39.8
2.08	39.91
2.092	40.03
2.104	40.35
2.116	40.65
2.128	40.13
2.14	38.96
2.152	38.51
2.164	39.35
2.176	40.39
2.188	40.83
2.2	40.73
2.212	40.19
2.224	39.91
2.236	39.67
2.248	39.55
2.26	39.42
2.272	39.46
2.284	39.33
2.296	39.37
2.308	39.37
2.32	39.4
2.332	39.37
2.344	39.07
2.356	38.41
2.368	37.34
2.38	35.96
2.392	34.27
2.404	32.65
2.416	31.23
2.428	30.11
2.44	29.36
2.452	28.65
2.464	27.72
2.476	26.44
2.488	25.09
2.5	23.78
