Name: Halite NaCl
Type: Mineral
Class: Halides
Particle Size: 125-500um
Sample No.: H-3A
Owner: JPL
Wavelength Range: VNIR-SWIR
Origin: USA, Michigan, Wayne County, Detroit
Measurement: Hemispherical reflectance
X Units: Wavelength (micrometers)
Y Units: Reflectance (percent)
wavelength	value
0.4	83.78
0.403	84.04
0.406	84.07
0.409	84.23
0.412	84.17
0.415	84.31
0.418	84.35
0.421	84.48
0.424	84.6
0.427	84.68
0.43	84.83
0.433	84.85
0.436	85.04
0.439	85.21
0.442	85.22
0.445	85.36
0.448	85.19
0.451	85.34
0.454	85.31
0.457	85.64
0.46	85.68
0.463	85.62
0.466	85.67
0.469	85.79
0.472	86.09
0.475	86.12
0.478	86.06
0.481	86.05
0.484	86.11
0.487	86.27
0.49	86.13
0.493	86.31
0.496	86.35
0.499	86.49
0.502	86.58
0.505	86.64
0.508	86.7
0.511	86.69
0.514	86.88
0.517	86.95
0.52	87.02
0.523	87.09
0.526	87
0.529	87.13
0.532	87.17
0.535	87.24
0.538	87.29
0.541	87.28
0.544	87.32
0.547	87.47
0.55	87.62
0.553	87.68
0.556	87.68
0.559	87.68
0.562	88.19
0.565	88.24
0.568	88.46
0.571	88.3
0.574	88.06
0.577	88.21
0.58	88.11
0.583	88.34
0.586	88.29
0.589	88.28
0.592	88.35
0.595	88.41
0.598	88.56
0.601	88.54
0.604	88.63
0.607	88.54
0.61	88.62
0.613	88.5
0.616	88.55
0.619	88.47
0.622	88.4
0.625	88.5
0.628	88.56
0.631	88.65
0.634	88.62
0.637	88.44
0.64	88.5
0.643	88.55
0.646	88.67
0.649	88.56
0.652	88.72
0.655	88.54
0.658	88.56
0.661	88.61
0.664	88.84
0.667	88.71
0.67	88.66
0.673	88.56
0.676	88.66
0.679	88.71
0.682	88.77
0.685	88.78
0.688	88.63
0.691	88.66
0.694	88.82
0.697	88.83
0.7	88.72
0.703	88.8
0.706	88.72
0.709	88.67
0.712	88.94
0.715	88.73
0.718	88.78
0.721	88.78
0.724	88.67
0.727	88.78
0.73	88.63
0.733	88.71
0.736	88.68
0.739	88.79
0.742	88.78
0.745	88.74
0.748	88.73
0.751	88.68
0.754	88.69
0.757	88.8
0.76	88.79
0.763	88.63
0.766	88.75
0.769	88.74
0.772	88.65
0.775	88.8
0.778	88.63
0.781	88.64
0.784	88.7
0.787	88.86
0.79	88.81
0.793	88.59
0.796	88.84
0.799	88.71
0.808	88.88
0.82	88.88
0.832	88.93
0.844	88.92
0.856	89.03
0.868	89.02
0.88	89.08
0.892	89.08
0.904	89.14
0.916	89.2
0.928	89.26
0.94	89.31
0.952	89.37
0.964	89.37
0.976	89.32
0.988	89.33
1	89.35
1.012	89.26
1.024	89.38
1.036	89.39
1.048	89.43
1.06	89.53
1.072	89.59
1.084	89.59
1.096	89.62
1.108	89.63
1.12	89.71
1.132	89.62
1.144	89.49
1.156	89.55
1.168	89.47
1.18	89.46
1.192	89.46
1.204	89.6
1.216	89.41
1.228	89.45
1.24	89.48
1.252	89.51
1.264	89.61
1.276	89.58
1.288	89.63
1.3	89.45
1.312	89.44
1.324	89.46
1.336	89.4
1.348	89.38
1.36	89.31
1.372	89.35
1.384	89.19
1.396	89.01
1.408	88.69
1.42	88.41
1.432	88.3
1.444	88.3
1.456	88.25
1.468	88.41
1.48	88.58
1.492	88.75
1.504	88.75
1.516	89.03
1.528	89.15
1.54	89.17
1.552	89.17
1.564	89.28
1.576	89.36
1.588	89.24
1.6	89.44
1.612	89.35
1.624	89.4
1.636	89.35
1.648	89.44
1.66	89.58
1.672	89.45
1.684	89.41
1.696	89.52
1.708	89.58
1.72	89.61
1.732	89.52
1.744	89.41
1.756	89.41
1.768	89.29
1.78	89.35
1.792	89.29
1.804	89.21
1.816	89.25
1.828	89.26
1.84	89.29
1.852	89.16
1.864	89.04
1.876	88.6
1.888	87.69
1.9	86.42
1.912	85.19
1.924	84.5
1.936	84.22
1.948	84.29
1.96	84.48
1.972	84.91
1.984	85.51
1.996	86.18
2.008	86.74
2.02	87.32
2.032	87.74
2.044	88.15
2.056	88.33
2.068	88.56
2.08	88.67
2.092	88.91
2.104	89.13
2.116	89.44
2.128	89.52
2.14	89.53
2.152	89.48
2.164	89.34
2.176	89.3
2.188	89.16
2.2	89.1
2.212	89.05
2.224	89.08
2.236	89.08
2.248	88.99
2.26	88.95
2.272	88.93
2.284	88.93
2.296	88.77
2.308	88.86
2.32	88.98
2.332	89.01
2.344	88.87
2.356	88.78
2.368	88.51
2.38	88.43
2.392	88.23
2.404	88.11
2.416	87.82
2.428	87.63
2.44	87.39
2.452	87.1
2.464	86.85
2.476	86.71
2.488	86.74
2.5	86.94
