Name: Lepidolite K(Li,Al)3(Si,Al)_4O_10(F,OH)_2
Type: Mineral
Class: Silicates
Subclass: Phyllosilicates
Particle Size: 125-500um
Sample No.: PS-13B
Owner: JPL
Origin: South Africa.
Description: Lavender lepidolite.
Measurement: Hemispherical reflectance
X Units: Wavelength (micrometers)
Y Units: Reflectance (percent)
wavelength	value
2.5	32.5533
2.494	31.8292
2.488	31.0917
2.482	30.8715
2.476	30.4858
2.47	29.9817
2.464	29.3058
2.458	28.6611
2.452	28.075
2.446	27.4645
2.44	27.0734
2.434	27.1268
2.428	27.7782
2.422	28.7864
2.416	30.2193
2.41	31.8464
2.404	33.435
2.398	34.6158
2.392	35.2667
2.386	35.6468
2.38	35.685
2.374	35.6916
2.368	35.5409
2.362	35.0032
2.356	34.407
2.35	33.6377
2.344	33.6749
2.338	34.5577
2.332	36.2919
2.326	38.6923
2.32	41.2754
2.314	44.0756
2.308	46.8882
2.302	49.3211
2.296	51.4449
2.29	53.0264
2.284	54.2356
2.278	55.0696
2.272	55.5507
2.266	55.6942
2.26	55.5468
2.254	55.3273
2.248	54.7775
2.242	54.2738
2.236	53.3281
2.23	51.5651
2.224	48.6553
2.218	43.7545
2.212	37.3719
2.206	30.8742
2.2	26.8284
2.194	26.0207
2.188	28.8549
2.182	34.6142
2.176	41.9187
2.17	48.7463
2.164	54.0077
2.158	57.8401
2.152	60.6232
2.146	62.5906
2.14	63.8265
2.134	64.3809
2.128	64.1952
2.122	63.7305
2.116	63.7568
2.11	64.4635
2.104	65.5296
2.098	66.9146
2.092	68.6321
2.086	70.0592
2.08	71.2441
2.074	72.0891
2.068	72.8482
2.062	73.3992
2.056	73.7741
2.05	73.9004
2.044	74.1578
2.038	74.2432
2.032	74.441
2.026	74.5842
2.02	74.692
2.014	74.865
2.008	74.8153
2.002	74.8556
1.996	74.8099
1.99	74.7083
1.984	74.7485
1.978	74.6977
1.972	74.6406
1.966	74.5851
1.96	74.7856
1.954	74.7424
1.948	74.8776
1.942	74.8534
1.936	74.7946
1.93	74.7503
1.924	74.5594
1.918	74.3799
1.912	74.3232
1.906	74.1228
1.9	74.055
1.894	74.6898
1.888	75.7008
1.882	76.3721
1.876	76.7106
1.87	76.8808
1.864	77.1091
1.858	77.2096
1.852	77.2238
1.846	77.039
1.84	76.823
1.834	76.8034
1.828	77.1234
1.822	77.5478
1.816	77.9565
1.81	78.153
1.804	78.285
1.798	78.228
1.792	78.283
1.786	78.1953
1.78	78.1334
1.774	78.1928
1.768	78.1918
1.762	78.145
1.756	78.2045
1.75	78.2352
1.744	78.4429
1.738	78.4315
1.732	78.5099
1.726	78.5519
1.72	78.5586
1.714	78.5222
1.708	78.4005
1.702	78.4207
1.696	78.3878
1.69	78.3121
1.684	78.2918
1.678	78.2656
1.672	78.2584
1.666	78.2357
1.66	78.1937
1.654	78.1277
1.648	78.1149
1.642	78.1163
1.636	78.0576
1.63	78.0308
1.624	77.9909
1.618	77.8959
1.612	77.9713
1.606	77.9539
1.6	77.8586
1.594	77.8423
1.588	77.7168
1.582	77.6899
1.576	77.6059
1.57	77.5254
1.564	77.4548
1.558	77.3415
1.552	77.3003
1.546	77.21
1.54	77.1329
1.534	76.9432
1.528	77.0101
1.522	76.8283
1.516	76.7187
1.51	76.5501
1.504	76.4024
1.498	76.3457
1.492	76.199
1.486	75.9661
1.48	75.8774
1.474	75.7387
1.468	75.5608
1.462	75.3293
1.456	74.9282
1.45	74.4887
1.444	73.9666
1.438	72.8455
1.432	71.0005
1.426	66.421
1.42	54.8364
1.414	41.0061
1.408	40.3307
1.402	42.8797
1.396	51.719
1.39	61.5044
1.384	63.2134
1.378	69.653
1.372	71.5722
1.366	72.3832
1.36	73.0261
1.354	73.2148
1.348	73.1521
1.342	72.7671
1.336	72.4756
1.33	72.1517
1.324	72.0678
1.318	72.0487
1.312	72.0129
1.306	72.1666
1.3	72.2747
1.294	72.3717
1.288	72.3588
1.282	72.4058
1.276	72.5023
1.27	72.3708
1.264	72.2706
1.258	72.0111
1.252	71.5136
1.246	71.2778
1.24	71.3629
1.234	71.4677
1.228	71.365
1.222	71.1715
1.216	71.0204
1.21	70.9036
1.204	70.7364
1.198	70.5516
1.192	70.4131
1.186	70.1886
1.18	69.9961
1.174	69.8003
1.168	69.658
1.162	69.4718
1.156	69.2443
1.15	69.029
1.144	68.9186
1.138	68.7524
1.132	68.495
1.126	68.2652
1.12	68.0267
1.114	67.9032
1.108	67.5945
1.102	67.3596
1.096	67.2312
1.09	66.9641
1.084	66.8092
1.078	66.4196
1.072	66.23
1.066	65.9786
1.06	65.6265
1.054	65.4306
1.048	65.1874
1.042	64.9537
1.036	64.6404
1.03	64.4395
1.024	64.1793
1.018	63.9272
1.012	63.6294
1.006	63.3919
1	63.0491
0.994	62.8189
0.988	62.4888
0.982	62.202
0.976	61.7773
0.97	60.994
0.964	60.0474
0.958	59.9673
0.952	60.2685
0.946	60.2193
0.94	60.07
0.934	59.9299
0.928	59.616
0.922	59.2741
0.916	59.0256
0.91	58.7915
0.904	58.5535
0.898	58.2265
0.892	58.0381
0.886	57.7599
0.88	57.5532
0.874	57.2674
0.868	57.0401
0.862	56.8058
0.856	56.5177
0.85	56.3393
0.844	56.0676
0.838	55.9136
0.832	55.7
0.826	55.5121
0.82	55.3842
0.814	55.2104
0.808	55.1515
0.802	54.9941
0.796	54.8626
0.79	54.7791
0.784	54.7516
0.778	54.6044
0.772	54.6458
0.766	54.6305
0.76	54.6009
0.754	54.6799
0.748	54.737
0.742	54.7895
0.736	54.8822
0.73	55.0074
0.724	55.1449
0.718	55.2805
0.712	55.448
0.706	55.5895
0.7	55.7736
0.694	55.9292
0.688	56.0637
0.682	56.1707
0.676	56.2394
0.67	56.2036
0.664	56.1012
0.658	55.8499
0.652	55.4541
0.646	54.8805
0.64	54.1365
0.634	53.21
0.628	52.1324
0.622	50.9134
0.616	49.6447
0.61	48.2941
0.604	46.9611
0.598	45.7101
0.592	44.5539
0.586	43.5226
0.58	42.6491
0.574	41.996
0.568	41.5809
0.562	41.3903
0.556	41.4287
0.55	41.6737
0.544	42.1006
0.538	42.7025
0.532	43.3775
0.526	44.1416
0.52	44.9654
0.514	45.8136
0.508	46.6332
0.502	47.3205
0.496	47.904
0.49	48.3443
0.484	48.6719
0.478	48.9198
0.472	49.1461
0.466	49.3912
0.46	49.5519
0.454	49.6124
0.448	49.6439
0.442	49.6796
0.436	49.7444
0.43	49.8169
0.424	49.8583
0.418	49.7773
0.412	49.9321
0.406	50.2275
0.4	50.3157
