Name: Azurite Cu_3(CO_3)_2(OH)_2
Type: Mineral
Class: Carbonates
Particle Size: 0-45um
Sample No.: C-12A
Owner: JPL
Origin: USA, California, San Bernadino County, Near Valley Wells.
Measurement: Hemispherical reflectance
X Units: Wavelength (micrometers)
Y Units: Reflectance (percent)
wavelength	value
2.5	41.1277
2.494	41.0334
2.488	41.3575
2.482	41.8796
2.476	42.2311
2.47	42.7003
2.464	43.1457
2.458	43.4548
2.452	43.7768
2.446	44.1574
2.44	44.4696
2.434	44.7962
2.428	45.099
2.422	45.4452
2.416	45.5805
2.41	45.6941
2.404	45.8875
2.398	46.0636
2.392	46.3753
2.386	46.5968
2.38	46.8773
2.374	47.0584
2.368	46.5027
2.362	45.2629
2.356	43.8559
2.35	43.4646
2.344	44.5607
2.338	46.8771
2.332	49.3089
2.326	51.2702
2.32	52.4243
2.314	52.7625
2.308	52.6368
2.302	51.8076
2.296	50.1942
2.29	48.1461
2.284	46.6498
2.278	46.7169
2.272	47.9663
2.266	49.4202
2.26	50.4015
2.254	51.1443
2.248	52.2143
2.242	53.6093
2.236	55.039
2.23	56.1455
2.224	56.9324
2.218	57.3129
2.212	57.5009
2.206	57.8649
2.2	58.9267
2.194	59.8774
2.188	60.4733
2.182	60.9711
2.176	61.3948
2.17	61.8396
2.164	62.2773
2.158	62.698
2.152	63.0666
2.146	63.2041
2.14	63.347
2.134	63.2713
2.128	63.2059
2.122	62.9327
2.116	62.5197
2.11	62.1789
2.104	61.8502
2.098	61.6497
2.092	61.5266
2.086	61.4149
2.08	61.1767
2.074	60.9225
2.068	60.5399
2.062	60.1365
2.056	59.8046
2.05	59.3611
2.044	58.9224
2.038	58.5401
2.032	58.2323
2.026	57.6383
2.02	57.2287
2.014	56.6674
2.008	56.0284
2.002	55.4402
1.996	54.6469
1.99	53.8856
1.984	53.0662
1.978	52.2928
1.972	51.6021
1.966	51.0114
1.96	50.3251
1.954	49.7411
1.948	49.1711
1.942	48.6023
1.936	47.8957
1.93	47.2332
1.924	46.4671
1.918	45.6856
1.912	45.1982
1.906	45.9008
1.9	48.4641
1.894	52.3414
1.888	56.2175
1.882	59.4274
1.876	61.8971
1.87	63.8763
1.864	65.041
1.858	65.5877
1.852	65.9829
1.846	66.0574
1.84	66.2329
1.834	66.2575
1.828	66.2243
1.822	66.1504
1.816	66.0645
1.81	66.0127
1.804	65.8505
1.798	65.7575
1.792	65.6161
1.786	65.5074
1.78	65.35
1.774	65.2924
1.768	65.2332
1.762	65.1281
1.756	65.0508
1.75	64.9946
1.744	64.9018
1.738	64.8004
1.732	64.7126
1.726	64.5962
1.72	64.4718
1.714	64.3268
1.708	64.1375
1.702	63.9104
1.696	63.7383
1.69	63.5461
1.684	63.3665
1.678	63.1617
1.672	62.9326
1.666	62.7396
1.66	62.4976
1.654	62.2147
1.648	62.0798
1.642	61.8078
1.636	61.421
1.63	61.1616
1.624	60.9125
1.618	60.6432
1.612	60.3946
1.606	60.0688
1.6	59.7866
1.594	59.5391
1.588	59.2973
1.582	58.9063
1.576	58.6183
1.57	58.2867
1.564	57.9357
1.558	57.6452
1.552	57.2887
1.546	56.9084
1.54	56.5499
1.534	56.1191
1.528	55.7231
1.522	55.2355
1.516	54.7808
1.51	54.2261
1.504	53.429
1.498	53.0859
1.492	52.7967
1.486	52.5433
1.48	52.2991
1.474	52.0412
1.468	51.7369
1.462	51.4166
1.456	51.1755
1.45	50.885
1.444	50.4903
1.438	50.0619
1.432	49.5193
1.426	48.8893
1.42	48.0413
1.414	46.8058
1.408	47.6726
1.402	49.0376
1.396	49.9919
1.39	50.3547
1.384	50.4079
1.378	50.5187
1.372	50.511
1.366	50.4223
1.36	50.1408
1.354	49.9349
1.348	49.7673
1.342	49.4787
1.336	49.2914
1.33	49.136
1.324	48.837
1.318	48.5922
1.312	48.4012
1.306	48.1841
1.3	47.9862
1.294	47.8026
1.288	47.5745
1.282	47.3063
1.276	47.1038
1.27	46.8603
1.264	46.6066
1.258	46.4134
1.252	46.1684
1.246	45.9361
1.24	45.6899
1.234	45.4663
1.228	45.2355
1.222	44.9862
1.216	44.7596
1.21	44.5659
1.204	44.3403
1.198	44.1345
1.192	43.8648
1.186	43.6552
1.18	43.4887
1.174	43.2506
1.168	43.0015
1.162	42.7987
1.156	42.496
1.15	42.2776
1.144	42.0984
1.138	41.9026
1.132	41.6
1.126	41.3399
1.12	41.1078
1.114	40.8408
1.108	40.5027
1.102	40.2611
1.096	39.9815
1.09	39.5912
1.084	39.2988
1.078	38.9726
1.072	38.6223
1.066	38.1404
1.06	37.7592
1.054	37.3606
1.048	36.8447
1.042	36.3854
1.036	35.9234
1.03	35.3367
1.024	34.8148
1.018	34.2051
1.012	33.6814
1.006	33.1524
1	32.4756
0.994	31.8086
0.988	31.2436
0.982	30.595
0.976	29.9252
0.97	29.2557
0.964	28.592
0.958	28.0078
0.952	27.3946
0.946	26.7306
0.94	26.0132
0.934	25.4098
0.928	24.7422
0.922	24.1556
0.916	23.5502
0.91	23.0089
0.904	22.4809
0.898	21.9832
0.892	21.471
0.886	21.0497
0.88	20.5788
0.874	20.2271
0.868	19.8478
0.862	19.4874
0.856	19.3705
0.85	19.0748
0.844	18.8103
0.838	18.5695
0.832	18.3598
0.826	18.1516
0.82	17.9522
0.814	17.7568
0.808	17.5954
0.802	17.4295
0.796	17.2469
0.79	17.1101
0.784	16.9562
0.778	16.8351
0.772	16.7009
0.766	16.607
0.76	16.5216
0.754	16.4234
0.748	16.351
0.742	16.3116
0.736	16.2793
0.73	16.2699
0.724	16.2765
0.718	16.3207
0.712	16.3877
0.706	16.4872
0.7	16.6068
0.694	16.7752
0.688	16.97
0.682	17.2197
0.676	17.5008
0.67	17.8299
0.664	18.1788
0.658	18.6173
0.652	19.1075
0.646	19.6737
0.64	20.3043
0.634	20.9975
0.628	21.775
0.622	22.6156
0.616	23.519
0.61	24.483
0.604	25.511
0.598	26.5749
0.592	27.6713
0.586	28.759
0.58	29.8318
0.574	30.8654
0.568	31.8364
0.562	32.713
0.556	33.5514
0.55	34.2923
0.544	34.9247
0.538	35.4213
0.532	35.8355
0.526	36.1316
0.52	36.3341
0.514	36.4077
0.508	36.3676
0.502	36.2202
0.496	35.9708
0.49	35.6819
0.484	35.2815
0.478	34.833
0.472	34.3432
0.466	33.8062
0.46	33.1955
0.454	32.5393
0.448	31.6728
0.442	30.5826
0.436	29.3318
0.43	27.9716
0.424	26.6315
0.418	25.2843
0.412	23.8958
0.406	22.3961
0.4	20.72
