Name: Chlorite
Type: Mineral
Class: Silicates
Subclass: Phyllosilicates
Particle Size: 0-45um
Sample No.: PS-12E
Owner: JPL
Wavelength Range: VNIR-SWIR
Origin: USA, Vermont
Measurement: Hemispherical reflectance
X Units: Wavelength (micrometers)
Y Units: Reflectance (percent)
wavelength	value
0.4	25.13
0.403	25.39
0.406	25.42
0.409	25.61
0.412	25.9
0.415	26.19
0.418	26.71
0.421	27.18
0.424	27.54
0.427	27.83
0.43	28.1
0.433	28.39
0.436	28.61
0.439	29
0.442	29.08
0.445	29.04
0.448	28.87
0.451	28.86
0.454	29.13
0.457	29.44
0.46	29.45
0.463	29.87
0.466	30.19
0.469	30.58
0.472	30.87
0.475	31.37
0.478	31.68
0.481	32.07
0.484	32.33
0.487	32.42
0.49	32.44
0.493	32.28
0.496	32.49
0.499	32.76
0.502	33.09
0.505	33.1
0.508	33.2
0.511	33.4
0.514	33.36
0.517	33.42
0.52	33.22
0.523	33.22
0.526	33.21
0.529	33.11
0.532	33.05
0.535	32.93
0.538	32.92
0.541	33
0.544	32.79
0.547	32.72
0.55	32.7
0.553	32.56
0.556	32.53
0.559	32.53
0.562	32.54
0.565	32.3
0.568	32.11
0.571	32.01
0.574	31.7
0.577	31.61
0.58	31.37
0.583	31.05
0.586	30.99
0.589	30.83
0.592	30.71
0.595	30.42
0.598	30.17
0.601	30.09
0.604	29.89
0.607	29.79
0.61	29.44
0.613	29.18
0.616	28.97
0.619	28.92
0.622	28.7
0.625	28.38
0.628	28.13
0.631	27.97
0.634	28.02
0.637	28.02
0.64	27.82
0.643	27.6
0.646	27.43
0.649	27.3
0.652	27.15
0.655	26.98
0.658	26.72
0.661	26.65
0.664	26.52
0.667	26.37
0.67	26.13
0.673	26.12
0.676	25.87
0.679	25.88
0.682	25.76
0.685	25.66
0.688	25.5
0.691	25.43
0.694	25.42
0.697	25.03
0.7	24.84
0.703	24.78
0.706	24.78
0.709	24.71
0.712	24.88
0.715	24.95
0.718	24.83
0.721	24.95
0.724	24.98
0.727	25.05
0.73	25.22
0.733	25.15
0.736	25.34
0.739	25.74
0.742	25.96
0.745	25.87
0.748	25.69
0.751	25.78
0.754	26
0.757	26.14
0.76	26.35
0.763	26.39
0.766	26.63
0.769	26.73
0.772	26.97
0.775	26.93
0.778	27.1
0.781	27.35
0.784	27.59
0.787	27.55
0.79	27.55
0.793	27.61
0.796	27.76
0.799	27.76
0.808	27.68
0.82	27.49
0.832	27.18
0.844	26.97
0.856	26.62
0.868	26.37
0.88	26.17
0.892	26.13
0.904	26.17
0.916	26.38
0.928	26.65
0.94	26.98
0.952	27.44
0.964	27.8
0.976	28.1
0.988	28.41
1	28.45
1.012	28.66
1.024	28.71
1.036	28.7
1.048	28.77
1.06	28.82
1.072	28.98
1.084	29.03
1.096	29.18
1.108	29.24
1.12	29.44
1.132	29.58
1.144	29.83
1.156	30.21
1.168	30.6
1.18	31.01
1.192	31.37
1.204	31.72
1.216	32.19
1.228	32.7
1.24	33.19
1.252	33.64
1.264	34.09
1.276	34.57
1.288	34.96
1.3	35.28
1.312	35.7
1.324	36.12
1.336	36.59
1.348	36.99
1.36	37.39
1.372	37.78
1.384	36.93
1.396	37.29
1.408	37.89
1.42	38.59
1.432	38.73
1.444	38.99
1.456	39.35
1.468	39.72
1.48	40.01
1.492	40.28
1.504	40.46
1.516	40.67
1.528	40.8
1.54	41.05
1.552	41.34
1.564	41.55
1.576	41.77
1.588	42.1
1.6	42.42
1.612	42.65
1.624	42.87
1.636	43.13
1.648	43.34
1.66	43.52
1.672	43.73
1.684	43.89
1.696	44.13
1.708	44.29
1.72	44.39
1.732	44.45
1.744	44.55
1.756	44.66
1.768	44.75
1.78	44.87
1.792	44.9
1.804	44.87
1.816	44.87
1.828	44.89
1.84	44.85
1.852	44.81
1.864	44.76
1.876	44.73
1.888	44.91
1.9	44.96
1.912	44.99
1.924	44.94
1.936	44.8
1.948	44.63
1.96	44.57
1.972	44.5
1.984	44.39
1.996	44.55
2.008	44.72
2.02	45.17
2.032	45.52
2.044	45.81
2.056	45.84
2.068	45.95
2.08	46.04
2.092	46.06
2.104	46.06
2.116	46.12
2.128	46.12
2.14	46.1
2.152	46.05
2.164	45.75
2.176	45.65
2.188	45.3
2.2	44.98
2.212	44.46
2.224	43.44
2.236	41.82
2.248	40.91
2.26	40.92
2.272	40.67
2.284	39.77
2.296	38.87
2.308	37.93
2.32	37.42
2.332	37.34
2.344	37.97
2.356	39.03
2.368	40.03
2.38	40.62
2.392	40.97
2.404	41.33
2.416	41.5
2.428	41.29
2.44	40.84
2.452	40.33
2.464	39.72
2.476	39.41
2.488	39.44
2.5	39.55
