Name: Ferroaxinite Ca_2Fe^2+Al_2BSi_4O_15(OH)
Type: Mineral
Class: Silicates
Subclass: Cyclosilicates
Particle Size: 0-45um
Sample No.: CS-4A
Owner: JPL
Origin: Mexico, Baja California Norte, Los Gavelontos.
Measurement: Hemispherical reflectance
X Units: Wavelength (micrometers)
Y Units: Reflectance (percent)
wavelength	value
2.5	49.259
2.494	48.9669
2.488	48.8107
2.482	48.8967
2.476	48.4761
2.47	48.5321
2.464	48.257
2.458	47.9317
2.452	47.4687
2.446	47.111
2.44	46.6205
2.434	46.1416
2.428	45.7507
2.422	45.1797
2.416	44.6241
2.41	43.9509
2.404	43.2708
2.398	42.5641
2.392	41.7067
2.386	40.5273
2.38	39.0114
2.374	37.6194
2.368	36.6303
2.362	36.3842
2.356	36.3929
2.35	36.225
2.344	35.432
2.338	34.1642
2.332	32.4289
2.326	31.028
2.32	30.1358
2.314	30.1806
2.308	30.4936
2.302	30.7428
2.296	31.0894
2.29	31.3961
2.284	31.5905
2.278	31.7287
2.272	31.6878
2.266	31.6963
2.26	31.8096
2.254	31.9026
2.248	31.9331
2.242	31.8712
2.236	31.7124
2.23	31.5483
2.224	31.3387
2.218	31.2855
2.212	31.1079
2.206	30.9057
2.2	30.7352
2.194	30.6267
2.188	30.4465
2.182	30.3271
2.176	30.2576
2.17	30.15
2.164	30.0865
2.158	30.0087
2.152	29.8978
2.146	29.7949
2.14	29.6599
2.134	29.5408
2.128	29.3916
2.122	29.2199
2.116	29.0956
2.11	28.8934
2.104	28.7874
2.098	28.6301
2.092	28.6227
2.086	28.6222
2.08	28.624
2.074	28.6465
2.068	28.655
2.062	28.687
2.056	28.7738
2.05	28.8416
2.044	28.8251
2.038	28.926
2.032	28.9426
2.026	29.0819
2.02	29.212
2.014	29.2105
2.008	29.3432
2.002	29.418
1.996	29.5102
1.99	29.5978
1.984	29.7942
1.978	29.8209
1.972	30.0135
1.966	30.1866
1.96	30.3078
1.954	30.5538
1.948	30.7322
1.942	30.9892
1.936	31.0492
1.93	31.2258
1.924	31.5866
1.918	31.6845
1.912	31.9394
1.906	32.1211
1.9	32.4368
1.894	32.7083
1.888	33.0071
1.882	33.3155
1.876	33.6576
1.87	33.9344
1.864	34.1972
1.858	34.4271
1.852	34.8518
1.846	35.1807
1.84	35.5254
1.834	35.7374
1.828	36.048
1.822	36.4128
1.816	36.7607
1.81	37.1045
1.804	37.4932
1.798	37.8433
1.792	38.2019
1.786	38.5649
1.78	39.0477
1.774	39.4374
1.768	39.8348
1.762	40.313
1.756	40.6429
1.75	41.1016
1.744	41.5653
1.738	42.0087
1.732	42.4603
1.726	42.9478
1.72	43.4085
1.714	43.771
1.708	44.3172
1.702	44.7313
1.696	45.1746
1.69	45.6631
1.684	46.0821
1.678	46.4211
1.672	47.0059
1.666	47.3064
1.66	47.7434
1.654	48.2465
1.648	48.6666
1.642	49.176
1.636	49.5208
1.63	49.9826
1.624	50.43
1.618	50.8691
1.612	51.2735
1.606	51.6303
1.6	52.0387
1.594	52.4004
1.588	52.6462
1.582	52.9872
1.576	53.2225
1.57	53.4701
1.564	53.6156
1.558	53.7201
1.552	53.8422
1.546	53.9581
1.54	54.0733
1.534	54.331
1.528	54.528
1.522	54.6395
1.516	54.7349
1.51	54.8247
1.504	54.8485
1.498	54.783
1.492	54.5984
1.486	54.2885
1.48	53.9391
1.474	53.4818
1.468	52.9413
1.462	52.3054
1.456	51.4748
1.45	50.678
1.444	49.6552
1.438	48.6489
1.432	47.612
1.426	46.4541
1.42	45.1983
1.414	43.8887
1.408	42.5815
1.402	41.2732
1.396	40.0044
1.39	38.581
1.384	37.1876
1.378	35.7262
1.372	34.3358
1.366	33.1003
1.36	31.7657
1.354	30.5129
1.348	29.1683
1.342	28.0019
1.336	26.8843
1.33	25.8679
1.324	24.7904
1.318	23.886
1.312	22.9655
1.306	22.2118
1.3	21.3976
1.294	20.6814
1.288	19.9435
1.282	19.2966
1.276	18.6709
1.27	18.1857
1.264	17.7069
1.258	17.1903
1.252	16.7861
1.246	16.4235
1.24	16.0702
1.234	15.8007
1.228	15.4779
1.222	15.2149
1.216	15.0141
1.21	14.8389
1.204	14.7471
1.198	14.5222
1.192	14.4191
1.186	14.3946
1.18	14.2613
1.174	14.2127
1.168	14.2674
1.162	14.2707
1.156	14.3
1.15	14.368
1.144	14.4398
1.138	14.6061
1.132	14.7309
1.126	14.8526
1.12	15.0598
1.114	15.3261
1.108	15.5971
1.102	15.892
1.096	16.1139
1.09	16.5496
1.084	16.8125
1.078	17.2193
1.072	17.7469
1.066	18.3284
1.06	18.7596
1.054	19.3936
1.048	19.9842
1.042	20.6394
1.036	21.4088
1.03	22.1999
1.024	23.0259
1.018	23.8468
1.012	24.8458
1.006	25.7693
1	26.8691
0.994	27.9483
0.988	29.1339
0.982	30.3899
0.976	31.6437
0.97	32.9763
0.964	34.3869
0.958	35.8365
0.952	37.297
0.946	38.8488
0.94	40.3377
0.934	41.8884
0.928	43.3867
0.922	44.9435
0.916	46.4025
0.91	47.8844
0.904	49.31
0.898	50.6604
0.892	51.9856
0.886	53.1663
0.88	54.3828
0.874	55.4407
0.868	56.4476
0.862	57.2631
0.856	58.8078
0.85	59.4184
0.844	59.9611
0.838	60.4122
0.832	60.7935
0.826	61.0513
0.82	61.2648
0.814	61.3959
0.808	61.4471
0.802	61.4465
0.796	61.3114
0.79	61.2076
0.784	61.0429
0.778	60.8334
0.772	60.5714
0.766	60.3251
0.76	60.067
0.754	59.7592
0.748	59.4515
0.742	59.1117
0.736	58.7792
0.73	58.4507
0.724	58.0754
0.718	57.6737
0.712	57.3133
0.706	56.8938
0.7	56.493
0.694	56.0707
0.688	55.6087
0.682	55.124
0.676	54.6607
0.67	54.1783
0.664	53.7078
0.658	53.2601
0.652	52.7651
0.646	52.3151
0.64	51.8545
0.634	51.3831
0.628	50.9259
0.622	50.4575
0.616	49.9894
0.61	49.5185
0.604	49.0373
0.598	48.5837
0.592	48.1505
0.586	47.7085
0.58	47.2654
0.574	46.8645
0.568	46.4656
0.562	46.1065
0.556	45.7139
0.55	45.3943
0.544	45.1441
0.538	44.9493
0.532	44.8016
0.526	44.6831
0.52	44.569
0.514	44.3956
0.508	44.3479
0.502	44.2533
0.496	44.0744
0.49	44.0045
0.484	43.982
0.478	43.9457
0.472	43.6148
0.466	43.2869
0.46	42.9876
0.454	42.4011
0.448	41.5683
0.442	40.3275
0.436	39.6603
0.43	39.5671
0.424	39.3966
0.418	38.4121
0.412	38.5202
0.406	40.2
0.4	38.7083
