Name: Enstatite Mg_2(SiO_3)_2
Type: Mineral
Class: Silicates
Subclass: Inosilicates
Particle Size: 125-500um
Sample No.: IN-10B
Owner: JPL
Origin: Norway, Telemark.
Measurement: Hemispherical reflectance
X Units: Wavelength (micrometers)
Y Units: Reflectance (percent)
wavelength	value
2.5	26.9182
2.494	26.5002
2.488	26.5647
2.482	26.7118
2.476	26.6273
2.47	26.3844
2.464	26.4504
2.458	26.3396
2.452	26.3812
2.446	26.2865
2.44	26.2058
2.434	26.2404
2.428	26.1818
2.422	26.103
2.416	26.0564
2.41	25.8703
2.404	25.7475
2.398	25.5054
2.392	25.3077
2.386	25.1133
2.38	25.0527
2.374	25.0473
2.368	25.0876
2.362	24.9625
2.356	24.8541
2.35	24.6933
2.344	24.4473
2.338	24.1687
2.332	23.7619
2.326	23.2827
2.32	22.7315
2.314	22.2833
2.308	22.071
2.302	22.0153
2.296	21.8957
2.29	21.8149
2.284	21.7118
2.278	21.6249
2.272	21.5368
2.266	21.3535
2.26	21.092
2.254	20.8143
2.248	20.5388
2.242	20.2201
2.236	19.8534
2.23	19.5873
2.224	19.2617
2.218	18.9501
2.212	18.7382
2.206	18.3348
2.2	18.088
2.194	17.6229
2.188	17.3339
2.182	16.991
2.176	16.6339
2.17	16.2588
2.164	15.9271
2.158	15.5286
2.152	15.1803
2.146	14.8039
2.14	14.4776
2.134	14.0464
2.128	13.7066
2.122	13.3404
2.116	12.9721
2.11	12.6245
2.104	12.2304
2.098	11.9318
2.092	11.6083
2.086	11.3655
2.08	11.0545
2.074	10.818
2.068	10.5652
2.062	10.348
2.056	10.0719
2.05	9.82868
2.044	9.65855
2.038	9.41299
2.032	9.23372
2.026	8.98841
2.02	8.7923
2.014	8.65453
2.008	8.4806
2.002	8.29978
1.996	8.2048
1.99	8.03211
1.984	7.85797
1.978	7.72834
1.972	7.55905
1.966	7.45507
1.96	7.40132
1.954	7.3191
1.948	7.24506
1.942	7.13427
1.936	7.01175
1.93	7.02764
1.924	6.95973
1.918	6.90284
1.912	6.80054
1.906	6.78381
1.9	6.78315
1.894	6.78672
1.888	6.72901
1.882	6.71675
1.876	6.74314
1.87	6.73254
1.864	6.78321
1.858	6.72616
1.852	6.78003
1.846	6.71484
1.84	6.76699
1.834	6.87204
1.828	6.8785
1.822	6.84915
1.816	6.89612
1.81	6.98136
1.804	6.99723
1.798	7.08549
1.792	7.10196
1.786	7.22039
1.78	7.26615
1.774	7.30034
1.768	7.41845
1.762	7.51398
1.756	7.66787
1.75	7.75959
1.744	7.85687
1.738	7.94337
1.732	8.12746
1.726	8.28463
1.72	8.37669
1.714	8.51087
1.708	8.65592
1.702	8.85245
1.696	9.03838
1.69	9.18177
1.684	9.34797
1.678	9.5911
1.672	9.76947
1.666	9.95457
1.66	10.1889
1.654	10.4715
1.648	10.6839
1.642	11.1078
1.636	11.1578
1.63	11.4304
1.624	11.8035
1.618	12.0512
1.612	12.4118
1.606	12.6678
1.6	13.0223
1.594	13.3461
1.588	13.7003
1.582	14.0843
1.576	14.4154
1.57	14.8165
1.564	15.2143
1.558	15.6291
1.552	16.0186
1.546	16.5003
1.54	16.9517
1.534	17.4198
1.528	17.8534
1.522	18.3062
1.516	18.7935
1.51	19.2678
1.504	19.7724
1.498	20.2354
1.492	20.7662
1.486	21.2754
1.48	21.788
1.474	22.2371
1.468	22.7662
1.462	23.2938
1.456	23.8251
1.45	24.2472
1.444	24.7743
1.438	25.2598
1.432	25.7244
1.426	26.1539
1.42	26.6073
1.414	27.0109
1.408	27.3462
1.402	27.7086
1.396	27.2276
1.39	28.0332
1.384	29.1068
1.378	29.7545
1.372	30.1179
1.366	30.4801
1.36	30.7898
1.354	31.1241
1.348	31.3908
1.342	31.6256
1.336	31.9394
1.33	32.1727
1.324	32.4276
1.318	32.5246
1.312	32.8086
1.306	32.8945
1.3	33.0628
1.294	33.1587
1.288	33.2475
1.282	33.413
1.276	33.4038
1.27	33.4608
1.264	33.5356
1.258	33.5602
1.252	33.6016
1.246	33.6529
1.24	33.6154
1.234	33.5982
1.228	33.5535
1.222	33.5564
1.216	33.4963
1.21	33.4442
1.204	33.399
1.198	33.292
1.192	33.2563
1.186	33.2311
1.18	33.0669
1.174	32.998
1.168	32.8369
1.162	32.694
1.156	32.5423
1.15	32.2999
1.144	32.0741
1.138	31.8313
1.132	31.5675
1.126	31.0434
1.12	30.7582
1.114	30.2343
1.108	29.4997
1.102	28.9067
1.096	28.0139
1.09	27.171
1.084	26.1961
1.078	25.0253
1.072	23.7662
1.066	22.5914
1.06	21.2064
1.054	19.7266
1.048	18.3106
1.042	16.909
1.036	15.461
1.03	14.2109
1.024	13.0508
1.018	11.9016
1.012	10.9373
1.006	9.93292
1	9.15293
0.994	8.40304
0.988	7.77708
0.982	7.28251
0.976	6.84048
0.97	6.53634
0.964	6.15115
0.958	5.89253
0.952	5.69554
0.946	5.47865
0.94	5.31586
0.934	5.26776
0.928	5.09415
0.922	5.1188
0.916	4.96949
0.91	5.04651
0.904	5.03572
0.898	5.02637
0.892	5.11216
0.886	5.15227
0.88	5.2091
0.874	5.39244
0.868	5.50186
0.862	5.70645
0.856	6.24794
0.85	6.54681
0.844	6.87215
0.838	7.25529
0.832	7.71747
0.826	8.2776
0.82	8.91748
0.814	9.6781
0.808	10.5401
0.802	11.5412
0.796	12.6544
0.79	13.8752
0.784	15.2383
0.778	16.7038
0.772	18.2076
0.766	19.7395
0.76	21.3097
0.754	22.8374
0.748	24.2755
0.742	25.6001
0.736	26.754
0.73	27.7453
0.724	28.5939
0.718	29.2318
0.712	29.7347
0.706	30.0719
0.7	30.2915
0.694	30.4005
0.688	30.4426
0.682	30.4203
0.676	30.3368
0.67	30.2282
0.664	30.1002
0.658	29.9641
0.652	29.815
0.646	29.6649
0.64	29.5023
0.634	29.3246
0.628	29.1364
0.622	28.9278
0.616	28.7218
0.61	28.554
0.604	28.409
0.598	28.2672
0.592	28.1068
0.586	27.8781
0.58	27.6532
0.574	27.4075
0.568	27.1559
0.562	26.8428
0.556	26.2642
0.55	25.4853
0.544	25.4879
0.538	25.9325
0.532	26.1012
0.526	26.009
0.52	25.7735
0.514	25.3566
0.508	23.8825
0.502	23.5084
0.496	23.9659
0.49	23.5417
0.484	22.9168
0.478	22.3985
0.472	22.0769
0.466	21.719
0.46	21.4331
0.454	21.0183
0.448	20.6786
0.442	20.537
0.436	20.2865
0.43	19.337
0.424	18.7711
0.418	18.8341
0.412	18.2824
0.406	17.45
0.4	16.5181
