Name: Cummingtonite (Mg,Fe^2+)_7Si_8O_22(OH)_2
Type: Mineral
Class: Silicates
Subclass: Inosilicates
Particle Size: 0-45um
Sample No.: IN-6A
Owner: JPL
Origin: USA, South Dakota.
Measurement: Hemispherical reflectance
X Units: Wavelength (micrometers)
Y Units: Reflectance (percent)
wavelength	value
2.5	16.888
2.494	16.7139
2.488	16.7011
2.482	16.8992
2.476	16.9362
2.47	17.0417
2.464	17.0055
2.458	17.1149
2.452	17.1353
2.446	17.2039
2.44	17.2163
2.434	17.337
2.428	17.3125
2.422	17.4434
2.416	17.4497
2.41	17.4216
2.404	17.4632
2.398	17.5796
2.392	17.5863
2.386	17.7048
2.38	17.7782
2.374	17.7903
2.368	17.8325
2.362	17.8747
2.356	17.8876
2.35	17.935
2.344	17.9729
2.338	17.9677
2.332	17.9711
2.326	17.9949
2.32	18.0683
2.314	18.1179
2.308	18.2193
2.302	18.2523
2.296	18.3753
2.29	18.4525
2.284	18.626
2.278	18.558
2.272	18.652
2.266	18.6642
2.26	18.7009
2.254	18.8109
2.248	18.8218
2.242	18.9245
2.236	19.0206
2.23	19.0311
2.224	19.2216
2.218	19.1622
2.212	19.3282
2.206	19.3851
2.2	19.4871
2.194	19.4216
2.188	19.5466
2.182	19.6048
2.176	19.6281
2.17	19.7043
2.164	19.746
2.158	19.8714
2.152	19.9169
2.146	19.9569
2.14	19.9408
2.134	19.9673
2.128	19.9413
2.122	19.916
2.116	19.8933
2.11	19.8143
2.104	19.8073
2.098	19.7621
2.092	19.8055
2.086	19.8677
2.08	19.8412
2.074	19.8951
2.068	19.9204
2.062	19.9781
2.056	19.9423
2.05	20.0228
2.044	20.0091
2.038	20.0298
2.032	20.0864
2.026	20.0769
2.02	20.1231
2.014	20.0818
2.008	20.1007
2.002	20.1044
1.996	20.1407
1.99	20.1369
1.984	20.1411
1.978	20.169
1.972	20.1524
1.966	20.1362
1.96	20.1874
1.954	20.1586
1.948	20.1981
1.942	20.1895
1.936	20.2299
1.93	20.2347
1.924	20.2021
1.918	20.3113
1.912	20.2841
1.906	20.3412
1.9	20.2997
1.894	20.3654
1.888	20.4089
1.882	20.3908
1.876	20.3919
1.87	20.4338
1.864	20.4741
1.858	20.4095
1.852	20.4947
1.846	20.4247
1.84	20.4675
1.834	20.4642
1.828	20.4341
1.822	20.5079
1.816	20.3953
1.81	20.4275
1.804	20.4443
1.798	20.4586
1.792	20.4168
1.786	20.4236
1.78	20.4208
1.774	20.4679
1.768	20.406
1.762	20.4923
1.756	20.4016
1.75	20.455
1.744	20.3945
1.738	20.4601
1.732	20.4466
1.726	20.4248
1.72	20.4282
1.714	20.3784
1.708	20.4137
1.702	20.3476
1.696	20.3347
1.69	20.3604
1.684	20.4065
1.678	20.2945
1.672	20.299
1.666	20.3736
1.66	20.2604
1.654	20.2974
1.648	20.2378
1.642	20.3863
1.636	20.3123
1.63	20.2608
1.624	20.1693
1.618	20.2658
1.612	20.2712
1.606	20.2284
1.6	20.1117
1.594	20.1742
1.588	20.1398
1.582	20.1125
1.576	20.0868
1.57	20.0788
1.564	20.0446
1.558	20.0294
1.552	19.9997
1.546	20.023
1.54	19.9512
1.534	19.9223
1.528	19.9705
1.522	19.9551
1.516	19.8884
1.51	19.841
1.504	19.8855
1.498	19.7853
1.492	19.792
1.486	19.7035
1.48	19.6261
1.474	19.6909
1.468	19.6311
1.462	19.5971
1.456	19.575
1.45	19.479
1.444	19.4825
1.438	19.4579
1.432	19.3604
1.426	19.3104
1.42	19.2577
1.414	18.9485
1.408	18.7324
1.402	19.0226
1.396	19.2033
1.39	19.1759
1.384	19.0886
1.378	19.0875
1.372	18.9451
1.366	18.9361
1.36	18.8794
1.354	18.8458
1.348	18.7459
1.342	18.6744
1.336	18.6841
1.33	18.5758
1.324	18.4829
1.318	18.4191
1.312	18.4259
1.306	18.3603
1.3	18.2832
1.294	18.2422
1.288	18.1298
1.282	18.1299
1.276	18.1063
1.27	17.9679
1.264	17.9342
1.258	17.8787
1.252	17.8927
1.246	17.7735
1.24	17.6562
1.234	17.6373
1.228	17.5953
1.222	17.5527
1.216	17.5071
1.21	17.4229
1.204	17.4453
1.198	17.3275
1.192	17.2494
1.186	17.2433
1.18	17.203
1.174	17.1853
1.168	17.1402
1.162	17.1109
1.156	17.0073
1.15	16.9759
1.144	16.9552
1.138	16.8825
1.132	16.8835
1.126	16.8363
1.12	16.757
1.114	16.6737
1.108	16.5898
1.102	16.5309
1.096	16.3933
1.09	16.2352
1.084	16.0363
1.078	15.8678
1.072	15.7315
1.066	15.4684
1.06	15.1346
1.054	14.8764
1.048	14.5305
1.042	14.136
1.036	13.7821
1.03	13.4308
1.024	13.0711
1.018	12.8059
1.012	12.5502
1.006	12.3522
1	12.1394
0.994	12.0747
0.988	12.0085
0.982	11.931
0.976	11.9117
0.97	11.9216
0.964	11.9404
0.958	12.0848
0.952	12.131
0.946	12.2561
0.94	12.4112
0.934	12.5624
0.928	12.7455
0.922	12.914
0.916	13.1795
0.91	13.3595
0.904	13.6112
0.898	13.8596
0.892	14.1257
0.886	14.3256
0.88	14.6357
0.874	14.8202
0.868	15.1483
0.862	15.4071
0.856	16.1607
0.85	16.3758
0.844	16.5604
0.838	16.7614
0.832	16.9145
0.826	17.0911
0.82	17.1958
0.814	17.2754
0.808	17.3624
0.802	17.4191
0.796	17.443
0.79	17.441
0.784	17.4274
0.778	17.4112
0.772	17.3994
0.766	17.3653
0.76	17.331
0.754	17.3049
0.748	17.2684
0.742	17.2446
0.736	17.2139
0.73	17.1904
0.724	17.1897
0.718	17.1804
0.712	17.1893
0.706	17.2025
0.7	17.2148
0.694	17.2367
0.688	17.2655
0.682	17.2986
0.676	17.3363
0.67	17.3752
0.664	17.4265
0.658	17.464
0.652	17.512
0.646	17.5555
0.64	17.6015
0.634	17.6374
0.628	17.647
0.622	17.6754
0.616	17.7122
0.61	17.7451
0.604	17.7701
0.598	17.8029
0.592	17.8277
0.586	17.8244
0.58	17.8214
0.574	17.796
0.568	17.7562
0.562	17.6779
0.556	17.5321
0.55	17.4352
0.544	17.3889
0.538	17.3339
0.532	17.1893
0.526	17.0159
0.52	16.8096
0.514	16.4968
0.508	16.2544
0.502	16.1136
0.496	15.8668
0.49	15.6018
0.484	15.358
0.478	15.1006
0.472	14.8948
0.466	14.7034
0.46	14.4746
0.454	14.2411
0.448	13.9775
0.442	13.6542
0.436	13.3132
0.43	12.9736
0.424	12.6256
0.418	12.2843
0.412	11.9718
0.406	11.6462
0.4	11.2941
