Name: Cookeite LiAl_4(Si_3Al)O_10(OH)_8
Type: Mineral
Class: Silicates
Subclass: Phyllosilicates
Particle Size: 0-45um
Sample No.: PS-9A
Owner: JPL
Origin: USA, Arkansas, Pulaski County.
Measurement: Hemispherical reflectance
X Units: Wavelength (micrometers)
Y Units: Reflectance (percent)
wavelength	value
2.5	38.4152
2.494	38.3761
2.488	38.4438
2.482	38.6683
2.476	38.7384
2.47	38.8603
2.464	39.0133
2.458	39.0585
2.452	39.248
2.446	39.1051
2.44	39.1261
2.434	39.2668
2.428	39.3596
2.422	39.602
2.416	39.8408
2.41	39.806
2.404	39.7914
2.398	39.7527
2.392	39.6712
2.386	39.5452
2.38	39.2782
2.374	39.0357
2.368	38.7523
2.362	38.6454
2.356	38.7188
2.35	39.0875
2.344	39.5436
2.338	40.0145
2.332	40.5646
2.326	40.8512
2.32	41.1995
2.314	41.517
2.308	41.7812
2.302	42.0795
2.296	42.3439
2.29	42.507
2.284	42.5147
2.278	42.5737
2.272	42.447
2.266	42.3779
2.26	42.2905
2.254	42.1494
2.248	42.023
2.242	41.9046
2.236	41.9503
2.23	41.7785
2.224	41.4291
2.218	41.1123
2.212	40.8435
2.206	40.9077
2.2	41.0877
2.194	41.0644
2.188	40.9093
2.182	40.9559
2.176	41.3108
2.17	41.8087
2.164	42.6332
2.158	43.5597
2.152	44.319
2.146	44.7139
2.14	45.0264
2.134	45.1173
2.128	45.1794
2.122	44.9927
2.116	44.9659
2.11	44.7454
2.104	44.6039
2.098	44.5945
2.092	44.6245
2.086	44.6552
2.08	44.7852
2.074	44.79
2.068	44.8637
2.062	44.8931
2.056	44.8397
2.05	44.8425
2.044	44.8988
2.038	44.9125
2.032	44.8832
2.026	44.8759
2.02	44.9068
2.014	44.9049
2.008	44.9524
2.002	44.9596
1.996	44.9138
1.99	44.9137
1.984	44.8758
1.978	44.9191
1.972	44.9183
1.966	44.9507
1.96	44.9255
1.954	44.8948
1.948	44.9186
1.942	44.8933
1.936	44.8715
1.93	45.0013
1.924	44.992
1.918	45.0602
1.912	45.0089
1.906	45.1611
1.9	45.3315
1.894	45.6091
1.888	45.6645
1.882	45.8604
1.876	45.8166
1.87	45.9487
1.864	45.9685
1.858	45.9946
1.852	45.9889
1.846	45.897
1.84	45.8685
1.834	45.882
1.828	45.8982
1.822	45.9346
1.816	45.9662
1.81	46.0081
1.804	46.0565
1.798	46.0562
1.792	46.0311
1.786	46.091
1.78	46.0809
1.774	46.0818
1.768	46.1342
1.762	46.1306
1.756	46.1355
1.75	46.078
1.744	46.1369
1.738	46.1882
1.732	46.247
1.726	46.1754
1.72	46.1546
1.714	46.1708
1.708	46.1636
1.702	46.0355
1.696	46.0599
1.69	46.04
1.684	46.0692
1.678	45.9668
1.672	46.0188
1.666	45.9834
1.66	45.9914
1.654	45.9505
1.648	45.8695
1.642	45.9275
1.636	45.9039
1.63	45.7906
1.624	45.7456
1.618	45.7909
1.612	45.7799
1.606	45.7231
1.6	45.6833
1.594	45.683
1.588	45.6373
1.582	45.7167
1.576	45.6922
1.57	45.6621
1.564	45.6675
1.558	45.7175
1.552	45.7861
1.546	45.6947
1.54	45.7082
1.534	45.7162
1.528	45.7686
1.522	45.7385
1.516	45.7712
1.51	45.7016
1.504	45.7093
1.498	45.6251
1.492	45.554
1.486	45.4813
1.48	45.5024
1.474	45.4137
1.468	45.4034
1.462	45.374
1.456	45.4141
1.45	45.2975
1.444	45.2685
1.438	45.2361
1.432	45.107
1.426	45.0133
1.42	44.9426
1.414	44.3551
1.408	44.0319
1.402	43.8807
1.396	44.247
1.39	44.7389
1.384	45.2594
1.378	45.5746
1.372	45.6042
1.366	45.6918
1.36	45.7178
1.354	45.7004
1.348	45.6828
1.342	45.6918
1.336	45.6002
1.33	45.5297
1.324	45.5662
1.318	45.5629
1.312	45.4996
1.306	45.524
1.3	45.6054
1.294	45.5646
1.288	45.5256
1.282	45.5296
1.276	45.4871
1.27	45.4598
1.264	45.4015
1.258	45.4261
1.252	45.4125
1.246	45.39
1.24	45.3526
1.234	45.3238
1.228	45.262
1.222	45.3547
1.216	45.2655
1.21	45.2677
1.204	45.2007
1.198	45.2381
1.192	45.2063
1.186	45.1636
1.18	45.1783
1.174	45.0278
1.168	45.1572
1.162	45.0638
1.156	45.0126
1.15	44.9583
1.144	45.0015
1.138	45.0491
1.132	44.9572
1.126	44.8755
1.12	44.8892
1.114	44.8563
1.108	44.7696
1.102	44.8404
1.096	44.6945
1.09	44.6238
1.084	44.6706
1.078	44.6696
1.072	44.5125
1.066	44.5793
1.06	44.5514
1.054	44.4681
1.048	44.5095
1.042	44.4115
1.036	44.5063
1.03	44.3928
1.024	44.3909
1.018	44.3092
1.012	44.3926
1.006	44.295
1	44.269
0.994	44.2305
0.988	44.1451
0.982	44.1732
0.976	44.1405
0.97	44.1195
0.964	44.1206
0.958	44.038
0.952	44.0651
0.946	44.0704
0.94	44.0529
0.934	43.9984
0.928	44.0332
0.922	43.9412
0.916	43.9511
0.91	43.9111
0.904	43.9305
0.898	43.9389
0.892	43.8647
0.886	43.891
0.88	43.8733
0.874	43.9007
0.868	43.9206
0.862	43.8913
0.856	44.0554
0.85	44.0219
0.844	44.0178
0.838	44.0296
0.832	44.0534
0.826	44.0512
0.82	44.0357
0.814	44.0451
0.808	44.0325
0.802	44.0265
0.796	44.0418
0.79	43.9839
0.784	43.9826
0.778	43.9314
0.772	43.9107
0.766	43.8889
0.76	43.8678
0.754	43.7999
0.748	43.7661
0.742	43.7197
0.736	43.6631
0.73	43.6128
0.724	43.5495
0.718	43.4773
0.712	43.4006
0.706	43.3332
0.7	43.2423
0.694	43.1812
0.688	43.1144
0.682	43.0397
0.676	42.9468
0.67	42.8777
0.664	42.7912
0.658	42.734
0.652	42.637
0.646	42.5736
0.64	42.4966
0.634	42.4196
0.628	42.3448
0.622	42.2464
0.616	42.1701
0.61	42.0579
0.604	41.9442
0.598	41.8353
0.592	41.7021
0.586	41.5151
0.58	41.3034
0.574	41.036
0.568	40.7246
0.562	40.3591
0.556	39.9141
0.55	39.4461
0.544	38.9172
0.538	38.3473
0.532	37.7238
0.526	37.0608
0.52	36.3847
0.514	35.6845
0.508	35.0228
0.502	34.3138
0.496	33.6041
0.49	32.9509
0.484	32.3882
0.478	31.997
0.472	31.6938
0.466	31.4239
0.46	31.1308
0.454	30.781
0.448	30.2606
0.442	29.4311
0.436	28.4209
0.43	27.2848
0.424	26.2418
0.418	25.3247
0.412	24.5039
0.406	23.7387
0.4	22.9371
