Name: Hematite alpha Fe_2O_3
Type: Mineral
Class: Oxides
Particle Size: 125-500um
Sample No.: O-1A
Owner: JPL
Wavelength Range: VNIR-SWIR
Origin: USA, Alabama, Birmingham
Measurement: Hemispherical reflectance
X Units: Wavelength (micrometers)
Y Units: Reflectance (percent)
wavelength	value
0.4	6.85
0.403	6.81
0.406	6.93
0.409	6.85
0.412	6.91
0.415	7.05
0.418	6.97
0.421	6.9
0.424	6.96
0.427	7.1
0.43	6.96
0.433	7.15
0.436	7.09
0.439	7.05
0.442	7.06
0.445	7.02
0.448	7.04
0.451	6.85
0.454	7.01
0.457	7.09
0.46	7.06
0.463	7.02
0.466	7
0.469	6.95
0.472	6.94
0.475	7
0.478	6.96
0.481	6.9
0.484	6.87
0.487	6.9
0.49	6.86
0.493	6.87
0.496	6.85
0.499	6.78
0.502	6.54
0.505	6.54
0.508	6.55
0.511	6.57
0.514	6.56
0.517	6.68
0.52	6.73
0.523	6.61
0.526	6.59
0.529	6.75
0.532	6.72
0.535	6.76
0.538	6.89
0.541	6.94
0.544	6.85
0.547	6.93
0.55	7.08
0.553	7.13
0.556	7.25
0.559	7.32
0.562	7.49
0.565	7.61
0.568	7.78
0.571	8.13
0.574	8.06
0.577	8.26
0.58	8.39
0.583	8.51
0.586	8.68
0.589	8.81
0.592	8.93
0.595	8.98
0.598	9.18
0.601	9.31
0.604	9.34
0.607	9.38
0.61	9.39
0.613	9.45
0.616	9.29
0.619	9.28
0.622	9.44
0.625	9.52
0.628	9.38
0.631	9.36
0.634	9.33
0.637	9.35
0.64	9.27
0.643	9.3
0.646	9.43
0.649	9.38
0.652	9.38
0.655	9.41
0.658	9.45
0.661	9.37
0.664	9.32
0.667	9.51
0.67	9.52
0.673	9.44
0.676	9.56
0.679	9.62
0.682	9.59
0.685	9.61
0.688	9.77
0.691	9.9
0.694	9.8
0.697	9.92
0.7	9.89
0.703	9.99
0.706	10.12
0.709	10.28
0.712	10.31
0.715	10.4
0.718	10.35
0.721	10.42
0.724	10.52
0.727	10.47
0.73	10.45
0.733	10.64
0.736	10.72
0.739	10.45
0.742	10.57
0.745	10.42
0.748	10.42
0.751	10.56
0.754	10.6
0.757	10.38
0.76	10.51
0.763	10.42
0.766	10.41
0.769	10.26
0.772	10.28
0.775	10.19
0.778	10.09
0.781	10.06
0.784	9.94
0.787	9.92
0.79	9.81
0.793	9.83
0.796	9.87
0.799	9.72
0.808	9.61
0.82	9.34
0.832	9.14
0.844	9.01
0.856	8.94
0.868	8.94
0.88	8.8
0.892	8.91
0.904	8.91
0.916	9.1
0.928	9.14
0.94	9.32
0.952	9.59
0.964	9.75
0.976	10.05
0.988	10.14
1	10.3
1.012	10.36
1.024	10.44
1.036	10.41
1.048	10.4
1.06	10.35
1.072	10.27
1.084	10.24
1.096	10.17
1.108	10.07
1.12	9.95
1.132	9.87
1.144	9.8
1.156	9.71
1.168	9.68
1.18	9.61
1.192	9.42
1.204	9.36
1.216	9.26
1.228	9.21
1.24	9.11
1.252	9.07
1.264	8.96
1.276	8.87
1.288	8.85
1.3	8.81
1.312	8.78
1.324	8.64
1.336	8.54
1.348	8.54
1.36	8.41
1.372	8.38
1.384	8.41
1.396	8.31
1.408	8.32
1.42	8.26
1.432	8.22
1.444	8.18
1.456	8.11
1.468	8.13
1.48	8.06
1.492	8.11
1.504	7.98
1.516	8.02
1.528	7.94
1.54	8
1.552	7.89
1.564	7.89
1.576	7.87
1.588	7.85
1.6	7.85
1.612	7.89
1.624	7.8
1.636	7.87
1.648	7.76
1.66	7.81
1.672	7.72
1.684	7.8
1.696	7.74
1.708	7.82
1.72	7.77
1.732	7.72
1.744	7.8
1.756	7.76
1.768	7.74
1.78	7.7
1.792	7.74
1.804	7.73
1.816	7.64
1.828	7.71
1.84	7.71
1.852	7.69
1.864	7.73
1.876	7.66
1.888	7.71
1.9	7.65
1.912	7.6
1.924	7.67
1.936	7.63
1.948	7.71
1.96	7.75
1.972	7.66
1.984	7.67
1.996	7.73
2.008	7.74
2.02	7.78
2.032	7.77
2.044	7.77
2.056	7.79
2.068	7.81
2.08	7.82
2.092	7.78
2.104	7.86
2.116	7.91
2.128	7.94
2.14	7.84
2.152	7.91
2.164	7.93
2.176	7.84
2.188	7.87
2.2	7.82
2.212	7.91
2.224	7.88
2.236	7.89
2.248	7.98
2.26	7.99
2.272	7.9
2.284	7.92
2.296	7.99
2.308	7.97
2.32	8.04
2.332	7.97
2.344	7.96
2.356	8.06
2.368	8.04
2.38	8.02
2.392	8.07
2.404	8.07
2.416	8.07
2.428	8.13
2.44	8.12
2.452	8.08
2.464	8.12
2.476	8.08
2.488	8.16
2.5	8.16
