Name: Chalcocite Cu_2S
Type: Mineral
Class: Sulfides
Particle Size: 45-125um
Sample No.: S-8A
Owner: JPL
Wavelength Range: VNIR-SWIR
Origin: USA, Alaska, Kennecott
Measurement: Hemispherical reflectance
X Units: Wavelength (micrometers)
Y Units: Reflectance (percent)
wavelength	value
0.4	7.4
0.403	7.45
0.406	7.43
0.409	7.49
0.412	7.43
0.415	7.51
0.418	7.49
0.421	7.55
0.424	7.59
0.427	7.68
0.43	7.53
0.433	7.56
0.436	7.56
0.439	7.59
0.442	7.59
0.445	7.46
0.448	7.49
0.451	7.5
0.454	7.56
0.457	7.49
0.46	7.49
0.463	7.42
0.466	7.35
0.469	7.4
0.472	7.29
0.475	7.34
0.478	7.29
0.481	7.27
0.484	7.11
0.487	7.25
0.49	7.19
0.493	7.21
0.496	7.17
0.499	7.04
0.502	6.96
0.505	7.07
0.508	7.02
0.511	7
0.514	6.94
0.517	6.96
0.52	6.98
0.523	7.05
0.526	6.97
0.529	6.87
0.532	6.82
0.535	6.76
0.538	6.83
0.541	6.8
0.544	6.89
0.547	6.78
0.55	6.74
0.553	6.65
0.556	6.73
0.559	6.73
0.562	6.74
0.565	6.73
0.568	6.69
0.571	6.75
0.574	6.74
0.577	6.72
0.58	6.6
0.583	6.71
0.586	6.65
0.589	6.71
0.592	6.68
0.595	6.66
0.598	6.59
0.601	6.6
0.604	6.63
0.607	6.57
0.61	6.6
0.613	6.65
0.616	6.6
0.619	6.48
0.622	6.49
0.625	6.47
0.628	6.47
0.631	6.43
0.634	6.43
0.637	6.37
0.64	6.42
0.643	6.38
0.646	6.37
0.649	6.3
0.652	6.36
0.655	6.37
0.658	6.38
0.661	6.36
0.664	6.3
0.667	6.36
0.67	6.33
0.673	6.36
0.676	6.26
0.679	6.36
0.682	6.21
0.685	6.3
0.688	6.31
0.691	6.37
0.694	6.39
0.697	6.31
0.7	6.25
0.703	6.19
0.706	6.24
0.709	6.3
0.712	6.2
0.715	6.31
0.718	6.19
0.721	6.24
0.724	6.26
0.727	6.29
0.73	6.18
0.733	6.14
0.736	6.12
0.739	6.12
0.742	6.18
0.745	6.18
0.748	6.24
0.751	6.17
0.754	6.18
0.757	6.23
0.76	6.28
0.763	6.11
0.766	6.22
0.769	6.16
0.772	6.21
0.775	6.23
0.778	6.26
0.781	6.15
0.784	6.16
0.787	6.03
0.79	6.15
0.793	6.16
0.796	6.12
0.799	6.28
0.808	6.45
0.82	6.46
0.832	6.47
0.844	6.3
0.856	6.29
0.868	6.36
0.88	6.3
0.892	6.3
0.904	6.36
0.916	6.37
0.928	6.31
0.94	6.24
0.952	6.25
0.964	6.36
0.976	6.24
0.988	6.31
1	6.34
1.012	6.39
1.024	6.55
1.036	6.63
1.048	6.65
1.06	6.66
1.072	6.66
1.084	6.64
1.096	6.59
1.108	6.62
1.12	6.54
1.132	6.49
1.144	6.42
1.156	6.39
1.168	6.39
1.18	6.41
1.192	6.33
1.204	6.4
1.216	6.25
1.228	6.2
1.24	6.2
1.252	6.17
1.264	6.16
1.276	6.14
1.288	6.15
1.3	6.11
1.312	6.06
1.324	6.05
1.336	5.96
1.348	5.98
1.36	5.88
1.372	5.92
1.384	5.93
1.396	5.94
1.408	5.89
1.42	5.85
1.432	5.81
1.444	5.76
1.456	5.81
1.468	5.77
1.48	5.76
1.492	5.81
1.504	5.68
1.516	5.72
1.528	5.69
1.54	5.7
1.552	5.64
1.564	5.59
1.576	5.64
1.588	5.65
1.6	5.59
1.612	5.64
1.624	5.63
1.636	5.58
1.648	5.53
1.66	5.58
1.672	5.64
1.684	5.58
1.696	5.52
1.708	5.57
1.72	5.52
1.732	5.51
1.744	5.51
1.756	5.52
1.768	5.51
1.78	5.56
1.792	5.58
1.804	5.49
1.816	5.49
1.828	5.54
1.84	5.51
1.852	5.45
1.864	5.51
1.876	5.43
1.888	5.56
1.9	5.51
1.912	5.51
1.924	5.51
1.936	5.48
1.948	5.54
1.96	5.55
1.972	5.54
1.984	5.57
1.996	5.56
2.008	5.56
2.02	5.6
2.032	5.52
2.044	5.59
2.056	5.67
2.068	5.61
2.08	5.63
2.092	5.52
2.104	5.61
2.116	5.64
2.128	5.63
2.14	5.63
2.152	5.65
2.164	5.54
2.176	5.62
2.188	5.56
2.2	5.65
2.212	5.63
2.224	5.59
2.236	5.68
2.248	5.7
2.26	5.68
2.272	5.73
2.284	5.68
2.296	5.64
2.308	5.73
2.32	5.61
2.332	5.7
2.344	5.7
2.356	5.72
2.368	5.77
2.38	5.78
2.392	5.81
2.404	5.76
2.416	5.74
2.428	5.86
2.44	5.8
2.452	5.84
2.464	5.8
2.476	5.84
2.488	5.9
2.5	5.94
