Name: Grossular Garnet Ca_3Al_2(SiO_4)_3
Type: Mineral
Class: Silicates
Subclass: Nesosilicates
Particle Size: 125-500um
Sample No.: NS-3B
Owner: JPL
Origin: Mexico, Lake Jaco
Measurement: Hemispherical reflectance
X Units: Wavelength (micrometers)
Y Units: Reflectance (percent)
wavelength	value
15.385	1.3005
15.116	2.2276
14.856	2.6691
14.605	3.1913
14.362	3.6908
14.128	4.5147
13.9	4.8026
13.68	5.5137
13.467	6.5177
13.26	6.9369
13.06	7.0166
12.866	7.9586
12.677	9.828
12.494	11.9022
12.316	15.0215
12.143	19.9424
11.974	27.2323
11.811	25.4513
11.651	30.9868
11.496	27.3513
11.345	10.6972
11.198	9.1812
11.055	25.3508
10.915	35.9173
10.779	35.7261
10.647	39.4093
10.517	40.7184
10.39	46.8053
10.267	46.613
10.146	41.4039
10.029	31.4692
9.914	17.481
9.801	8.4531
9.691	2.9813
9.584	0.9022
9.479	0.3259
9.376	0.084
9.275	0.1815
9.177	0.0186
9.08	0.2976
8.986	0.305
8.893	0.5046
8.803	0.5183
8.714	0.6991
8.627	0.7368
8.542	0.8917
8.458	0.991
8.376	0.9419
8.296	1.2216
8.217	1.3625
8.139	1.401
8.063	1.5277
7.989	1.4822
7.916	1.7901
7.844	1.6536
7.773	1.8861
7.704	1.9671
7.636	2.0306
7.569	2.0758
7.503	2.2082
7.439	2.2503
7.375	2.4175
7.313	2.5333
7.252	2.5558
7.191	2.5654
7.132	2.8212
7.073	2.9199
7.016	3.098
6.96	3.4008
6.904	3.6044
6.849	4.3622
6.795	4.9253
6.742	5.1954
6.69	5.6009
6.639	6.3217
6.588	6.5064
6.538	6.8939
6.489	8.0121
6.441	7.7025
6.393	7.3735
6.346	7.8493
6.3	7.4064
6.254	7.2047
6.209	6.5969
6.165	5.7457
6.121	4.6076
6.078	3.7105
6.036	3.1907
5.994	2.8782
5.953	2.7787
5.912	2.5871
5.872	2.7056
5.832	2.8917
5.793	2.9203
5.755	3.067
5.716	3.1755
5.679	3.4538
5.642	3.9007
5.605	3.9743
5.569	4.0391
5.533	4.0618
5.498	4.0693
5.463	4.2012
5.429	4.3684
5.395	4.6571
5.362	5.2237
5.329	5.7492
5.296	7.0975
5.264	8.6758
5.232	9.6167
5.2	10.3274
5.169	10.8538
5.139	11.2865
5.108	11.8198
5.078	12.3576
5.049	12.6779
5.019	13.1946
4.99	13.6525
4.962	14.1444
4.933	14.58
4.905	14.9155
4.878	15.2625
4.85	15.5035
4.823	15.918
4.796	16.2439
4.77	16.6717
4.744	17.0645
4.718	17.3124
4.692	17.6416
4.667	17.8495
4.642	18.1145
4.617	18.1957
4.592	18.4106
4.568	18.5032
4.544	18.6239
4.52	18.6823
4.497	18.718
4.474	18.75
4.45	18.6693
4.428	18.5778
4.405	18.4838
4.383	18.4715
4.361	18.3835
4.339	18.4253
4.317	18.2461
4.296	18.149
4.274	18.0724
4.253	17.9526
4.233	17.6315
4.212	17.391
4.191	17.2412
4.171	17.0605
4.151	16.8132
4.131	16.7072
4.112	16.3587
4.092	16.0818
4.073	15.843
4.054	15.5562
4.035	15.3811
4.016	15.4131
3.998	15.6314
3.979	16.0759
3.961	16.2806
3.943	16.847
3.925	16.8756
3.907	17.0454
3.89	17.2651
3.872	17.449
3.855	17.4018
3.838	17.6712
3.821	17.8272
3.804	18.0335
3.787	18.3492
3.771	18.8013
3.754	19.1659
3.738	19.7143
3.722	20.2196
3.706	20.618
3.69	21.2019
3.675	21.5243
3.659	21.6516
3.644	21.8214
3.628	21.6315
3.613	21.5079
3.598	21.3404
3.583	21.2182
3.568	21.149
3.554	21.1907
3.539	21.1174
3.525	21.1477
3.51	21.1494
3.496	21.2777
3.482	21.6486
3.468	21.9237
3.454	22.1597
3.441	22.4283
3.427	22.7366
3.413	23.1593
3.4	23.9017
3.387	24.4851
3.373	24.9364
3.36	25.7127
3.347	26.3441
3.334	27.1056
3.321	27.6684
3.309	28.5487
3.296	29.2419
3.284	29.6028
3.271	30.4845
3.259	31.1173
3.247	31.747
3.234	32.3808
3.222	32.9905
3.21	33.7117
3.199	34.2738
3.187	34.9536
3.175	35.4775
3.163	36.1655
3.152	36.7465
3.14	37.3509
3.129	37.966
3.118	38.5049
3.107	39.0388
3.095	39.5429
3.084	40.0036
3.073	40.4638
3.063	40.9509
3.052	41.3465
3.041	41.8317
3.03	42.196
3.02	42.3926
3.009	42.4509
2.999	42.8858
2.988	43.0861
2.978	43.4836
2.968	43.7606
2.958	43.98
2.948	44.2925
2.938	44.4321
2.928	44.5525
2.918	44.8574
2.908	44.9568
2.898	45.0574
2.888	45.2404
2.879	45.4772
2.869	45.6111
2.86	45.8509
2.85	45.867
2.841	46.1705
2.832	45.6707
2.822	45.2189
2.813	44.4612
2.804	44.6203
2.795	43.3687
2.786	42.2822
2.777	38.0345
2.768	35.4427
2.759	29.115
2.751	29.879
2.742	37.7541
2.733	32.0304
2.725	40.6365
2.716	46.3656
2.707	52.4607
2.699	55.713
2.691	57.7765
2.682	58.8826
2.674	59.6758
2.666	62.0932
2.658	60.0003
2.649	60.2225
2.641	60.5873
2.633	61.2504
2.625	61.607
2.617	63.2158
2.609	62.5827
2.602	62.5848
2.594	65.0062
2.586	63.3937
2.578	63.1396
2.571	63.9246
2.563	64.6451
2.555	63.5746
2.548	63.8733
2.54	63.9243
2.533	64.3276
2.525	64.3118
2.518	64.511
2.511	64.6321
2.504	64.8629
2.496	65.1256
2.489	65.3353
2.482	65.3654
2.475	65.7707
2.468	65.8223
2.461	66.1947
2.454	66.1676
2.447	66.333
2.44	66.5581
2.433	66.5619
2.426	66.8427
2.419	67.0542
2.413	66.9209
2.406	67.2121
2.399	67.2122
2.393	67.3959
2.386	67.5515
2.379	67.6317
2.373	67.5367
2.366	67.6113
2.36	67.6955
2.354	67.8636
2.347	67.9628
2.341	68.2374
2.334	68.538
2.328	68.6686
2.322	68.7661
2.316	68.9789
2.309	69.2796
2.303	69.4039
2.297	69.4944
2.291	69.686
2.285	69.8861
2.279	69.9754
2.273	69.9109
2.267	70.1738
2.261	70.3009
2.255	70.5391
2.249	70.6641
2.244	70.7711
2.238	70.8764
2.232	71.044
2.226	71.094
2.22	71.3078
2.215	71.321
2.209	71.6416
2.204	71.7095
2.198	71.7653
2.192	71.9227
2.187	72.1353
2.181	72.3779
2.176	72.6082
2.17	72.9566
2.165	72.8408
2.159	73.2615
2.154	73.1916
2.149	73.4597
2.143	73.8277
2.138	73.8179
2.133	74.1492
2.128	74.0551
2.122	74.4362
2.117	74.5521
2.112	74.669
2.107	74.7089
2.102	74.6947
2.097	75.1556
2.091	74.663
2.086	75.3968
2.081	75.4598
2.076	75.2672
2.071	75.5867
2.066	75.4796
2.062	75.7334
2.057	75.7767
2.052	75.8418
2.047	75.8028
2.042	75.7586
2.037	76.071
2.032	75.963
2.028	76.2045
2.023	76.3067
2.018	76.0547
2.014	76.2758
2.009	76.3374
2.004	76.2326
