Name: Labradorite (Feldspar) (NaSi,CaAl)AlSi_2O_8
Type: Mineral
Class: Silicates
Subclass: Tectosilicates
Particle Size: 45-125um
Sample No.: TS-2A
Owner: JPL
Wavelength Range: VNIR-SWIR
Origin: Mexico, Sonora, Pinacate
Measurement: Hemispherical reflectance
X Units: Wavelength (micrometers)
Y Units: Reflectance (percent)
wavelength	value
0.4	70.56
0.403	71.41
0.406	71.65
0.409	71.94
0.412	72.03
0.415	71.84
0.418	71.6
0.421	71.63
0.424	72.08
0.427	72.54
0.43	72.58
0.433	72.79
0.436	73.11
0.439	73.33
0.442	73.17
0.445	73.3
0.448	73.59
0.451	73.91
0.454	74.11
0.457	74.5
0.46	74.89
0.463	75.27
0.466	75.45
0.469	75.78
0.472	76.08
0.475	76.14
0.478	76.34
0.481	76.55
0.484	76.81
0.487	76.72
0.49	76.69
0.493	76.98
0.496	77.11
0.499	77.17
0.502	77.27
0.505	77.52
0.508	77.71
0.511	77.86
0.514	77.85
0.517	78.1
0.52	78.34
0.523	78.42
0.526	78.4
0.529	78.61
0.532	78.74
0.535	78.85
0.538	78.87
0.541	79.04
0.544	79.15
0.547	79.3
0.55	79.38
0.553	79.6
0.556	79.88
0.559	79.68
0.562	80.27
0.565	80.09
0.568	80.06
0.571	80.13
0.574	79.87
0.577	79.86
0.58	79.88
0.583	80.09
0.586	79.93
0.589	80.02
0.592	80.34
0.595	80.39
0.598	80.34
0.601	80.54
0.604	80.61
0.607	80.67
0.61	80.51
0.613	80.64
0.616	80.67
0.619	80.51
0.622	80.61
0.625	80.69
0.628	80.74
0.631	80.67
0.634	80.84
0.637	80.88
0.64	80.73
0.643	80.8
0.646	80.86
0.649	80.9
0.652	80.96
0.655	80.85
0.658	81.03
0.661	81.02
0.664	81.09
0.667	81.1
0.67	81.27
0.673	81.21
0.676	81.35
0.679	81.39
0.682	81.46
0.685	81.45
0.688	81.36
0.691	81.6
0.694	81.46
0.697	81.36
0.7	81.51
0.703	81.6
0.706	81.56
0.709	81.47
0.712	81.68
0.715	81.67
0.718	81.57
0.721	81.51
0.724	81.57
0.727	81.8
0.73	81.59
0.733	81.54
0.736	81.56
0.739	81.74
0.742	81.61
0.745	81.46
0.748	81.58
0.751	81.79
0.754	81.47
0.757	81.56
0.76	81.52
0.763	81.7
0.766	81.53
0.769	81.48
0.772	81.65
0.775	81.6
0.778	81.64
0.781	81.54
0.784	81.61
0.787	81.6
0.79	81.63
0.793	81.6
0.796	81.77
0.799	81.62
0.808	81.42
0.82	81.24
0.832	81.2
0.844	81.13
0.856	80.89
0.868	80.71
0.88	80.35
0.892	80.06
0.904	79.63
0.916	79.31
0.928	78.83
0.94	78.26
0.952	77.79
0.964	77.35
0.976	76.87
0.988	76.26
1	75.78
1.012	75.13
1.024	74.55
1.036	74.03
1.048	73.56
1.06	72.92
1.072	72.35
1.084	71.95
1.096	71.45
1.108	71
1.12	70.66
1.132	70.28
1.144	69.84
1.156	69.43
1.168	69.14
1.18	68.93
1.192	68.58
1.204	68.43
1.216	68.29
1.228	68.2
1.24	68.04
1.252	68
1.264	67.95
1.276	68
1.288	68.04
1.3	68.01
1.312	68.11
1.324	68.16
1.336	68.29
1.348	68.34
1.36	68.59
1.372	68.74
1.384	69.01
1.396	69.28
1.408	69.49
1.42	69.82
1.432	70.1
1.444	70.41
1.456	70.7
1.468	71
1.48	71.27
1.492	71.59
1.504	71.87
1.516	72.13
1.528	72.43
1.54	72.65
1.552	72.79
1.564	73.01
1.576	73.16
1.588	73.38
1.6	73.46
1.612	73.63
1.624	73.78
1.636	73.95
1.648	73.97
1.66	74.09
1.672	74.27
1.684	74.34
1.696	74.44
1.708	74.49
1.72	74.49
1.732	74.58
1.744	74.69
1.756	74.72
1.768	74.73
1.78	74.86
1.792	74.95
1.804	75.16
1.816	75.11
1.828	75.08
1.84	75.26
1.852	75.23
1.864	75.37
1.876	75.36
1.888	75.28
1.9	75.32
1.912	75.4
1.924	75.46
1.936	75.48
1.948	75.53
1.96	75.62
1.972	75.65
1.984	75.73
1.996	75.79
2.008	75.93
2.02	76.01
2.032	76.06
2.044	76.16
2.056	76.22
2.068	76.34
2.08	76.39
2.092	76.51
2.104	76.6
2.116	76.76
2.128	76.81
2.14	76.68
2.152	76.66
2.164	76.55
2.176	76.44
2.188	76.32
2.2	76.34
2.212	76.26
2.224	76.28
2.236	76.26
2.248	76.32
2.26	76.36
2.272	76.53
2.284	76.52
2.296	76.61
2.308	76.8
2.32	77.09
2.332	77.17
2.344	77.26
2.356	77.27
2.368	77.26
2.38	77.35
2.392	77.23
2.404	77.35
2.416	77.37
2.428	77.43
2.44	77.33
2.452	77.3
2.464	77.28
2.476	77.19
2.488	77.47
2.5	77.62
