Name: Halite NaCl
Type: Mineral
Class: Halides
Particle Size: 45-125um
Sample No.: H-3A
Owner: JPL
Wavelength Range: VNIR-SWIR
Origin: USA, Michigan, Wayne County, Detroit
Measurement: Hemispherical reflectance
X Units: Wavelength (micrometers)
Y Units: Reflectance (percent)
wavelength	value
0.4	85.7
0.403	85.84
0.406	85.91
0.409	85.97
0.412	85.85
0.415	86.2
0.418	86.21
0.421	86.33
0.424	86.47
0.427	86.58
0.43	86.59
0.433	86.83
0.436	86.88
0.439	87.11
0.442	87.13
0.445	87.08
0.448	87.3
0.451	87.36
0.454	87.39
0.457	87.41
0.46	87.57
0.463	87.62
0.466	87.81
0.469	87.89
0.472	88.07
0.475	88.26
0.478	88.15
0.481	88.16
0.484	88.24
0.487	88.3
0.49	88.49
0.493	88.46
0.496	88.55
0.499	88.52
0.502	88.6
0.505	88.71
0.508	88.88
0.511	88.87
0.514	88.91
0.517	88.93
0.52	89.04
0.523	89.16
0.526	89.34
0.529	89.34
0.532	89.32
0.535	89.24
0.538	89.47
0.541	89.53
0.544	89.55
0.547	89.58
0.55	89.6
0.553	89.78
0.556	89.89
0.559	90.07
0.562	90.43
0.565	90.5
0.568	90.55
0.571	90.38
0.574	90.39
0.577	90.4
0.58	90.49
0.583	90.44
0.586	90.56
0.589	90.67
0.592	90.61
0.595	90.68
0.598	90.69
0.601	90.76
0.604	90.73
0.607	90.97
0.61	90.91
0.613	90.85
0.616	90.8
0.619	90.8
0.622	90.8
0.625	90.96
0.628	90.87
0.631	90.92
0.634	90.92
0.637	90.68
0.64	90.86
0.643	90.97
0.646	90.92
0.649	90.97
0.652	91.09
0.655	91.04
0.658	90.92
0.661	91.09
0.664	90.97
0.667	90.98
0.67	90.92
0.673	91.04
0.676	90.97
0.679	91.1
0.682	91.04
0.685	91.15
0.688	90.97
0.691	91.15
0.694	91.09
0.697	91.03
0.7	90.98
0.703	91.1
0.706	91.09
0.709	91.21
0.712	91.27
0.715	91.15
0.718	91.15
0.721	91.21
0.724	91.27
0.727	91.09
0.73	91.09
0.733	91.09
0.736	91.04
0.739	91.15
0.742	91.21
0.745	91.16
0.748	91.04
0.751	91.05
0.754	91.16
0.757	91.15
0.76	91.04
0.763	91.05
0.766	91.21
0.769	91.05
0.772	91.17
0.775	91.15
0.778	91.22
0.781	91.11
0.784	91.17
0.787	91.17
0.79	91.34
0.793	91.27
0.796	91.22
0.799	91.22
0.808	91.2
0.82	91.31
0.832	91.3
0.844	91.37
0.856	91.41
0.868	91.53
0.88	91.47
0.892	91.59
0.904	91.59
0.916	91.65
0.928	91.66
0.94	91.71
0.952	91.71
0.964	91.71
0.976	91.65
0.988	91.65
1	91.73
1.012	91.77
1.024	91.71
1.036	91.76
1.048	91.77
1.06	91.71
1.072	91.85
1.084	91.99
1.096	91.94
1.108	91.94
1.12	91.98
1.132	91.96
1.144	91.84
1.156	91.88
1.168	91.85
1.18	91.78
1.192	91.75
1.204	91.91
1.216	91.93
1.228	91.88
1.24	91.79
1.252	91.74
1.264	91.82
1.276	91.82
1.288	91.84
1.3	91.7
1.312	91.8
1.324	91.72
1.336	91.87
1.348	91.8
1.36	91.75
1.372	91.62
1.384	91.53
1.396	91.5
1.408	91.35
1.42	91.19
1.432	91.27
1.444	91.23
1.456	91.24
1.468	91.31
1.48	91.43
1.492	91.54
1.504	91.6
1.516	91.65
1.528	91.65
1.54	91.65
1.552	91.71
1.564	91.66
1.576	91.77
1.588	91.77
1.6	91.77
1.612	91.81
1.624	91.9
1.636	91.87
1.648	91.96
1.66	91.96
1.672	92.05
1.684	92.08
1.696	91.99
1.708	92.05
1.72	92.11
1.732	91.93
1.744	92.04
1.756	91.99
1.768	91.94
1.78	91.87
1.792	91.93
1.804	91.96
1.816	91.88
1.828	91.79
1.84	91.84
1.852	91.67
1.864	91.65
1.876	91.44
1.888	91.04
1.9	90.39
1.912	89.84
1.924	89.57
1.936	89.32
1.948	89.36
1.96	89.57
1.972	89.88
1.984	90.17
1.996	90.55
2.008	90.84
2.02	91.23
2.032	91.46
2.044	91.59
2.056	91.65
2.068	91.76
2.08	91.99
2.092	92.15
2.104	92.38
2.116	92.61
2.128	92.54
2.14	92.46
2.152	92.48
2.164	92.27
2.176	92.21
2.188	92.2
2.2	92.08
2.212	91.99
2.224	92.01
2.236	91.95
2.248	91.97
2.26	92
2.272	92.09
2.284	92.03
2.296	92.03
2.308	92.11
2.32	92.17
2.332	92.34
2.344	92.35
2.356	92.23
2.368	92.23
2.38	92.1
2.392	92.05
2.404	91.94
2.416	91.97
2.428	91.89
2.44	91.76
2.452	91.57
2.464	91.43
2.476	91.47
2.488	91.6
2.5	92.03
