Name: Oligoclase (Feldspar) (NaSi,CaAl)AlSi_2O_8
Type: Mineral
Class: Silicates
Subclass: Tectosilicates
Particle Size: 0-45um
Sample No.: TS-3A
Owner: JPL
Origin: Unknown.
Measurement: Hemispherical reflectance
X Units: Wavelength (micrometers)
Y Units: Reflectance (percent)
wavelength	value
2.5	79.2328
2.494	79.4491
2.488	79.2226
2.482	79.3884
2.476	79.4925
2.47	79.3293
2.464	79.5636
2.458	79.6557
2.452	79.8552
2.446	79.9104
2.44	79.8358
2.434	80.0321
2.428	80.1355
2.422	80.3886
2.416	80.6518
2.41	80.685
2.404	80.958
2.398	81.0366
2.392	81.1224
2.386	81.1836
2.38	81.3265
2.374	81.2659
2.368	81.2714
2.362	81.115
2.356	80.9429
2.35	80.9977
2.344	81.2334
2.338	81.3354
2.332	81.6281
2.326	81.7759
2.32	81.9928
2.314	82.1635
2.308	82.3247
2.302	82.47
2.296	82.5296
2.29	82.5187
2.284	82.5927
2.278	82.5838
2.272	82.5585
2.266	82.5239
2.26	82.4848
2.254	82.5353
2.248	82.6001
2.242	82.5826
2.236	82.7108
2.23	82.6856
2.224	82.6659
2.218	82.5817
2.212	82.5245
2.206	82.2676
2.2	82.1602
2.194	82.289
2.188	82.5594
2.182	83.0416
2.176	83.4736
2.17	83.8147
2.164	84.1578
2.158	84.4393
2.152	84.6144
2.146	84.7793
2.14	84.717
2.134	84.5904
2.128	84.4645
2.122	84.1657
2.116	83.9371
2.11	83.6392
2.104	83.5171
2.098	83.3094
2.092	83.3743
2.086	83.5125
2.08	83.5469
2.074	83.6104
2.068	83.6752
2.062	83.7461
2.056	83.7516
2.05	83.8137
2.044	83.8165
2.038	83.8369
2.032	83.8264
2.026	83.7392
2.02	83.6615
2.014	83.7084
2.008	83.5926
2.002	83.5562
1.996	83.4106
1.99	83.2247
1.984	83.1268
1.978	82.9958
1.972	82.8474
1.966	82.6211
1.96	82.6747
1.954	82.6544
1.948	82.4718
1.942	82.5461
1.936	82.4674
1.93	82.4362
1.924	82.5689
1.918	82.5824
1.912	82.8103
1.906	83.0996
1.9	83.5925
1.894	83.9285
1.888	84.2571
1.882	84.5151
1.876	84.6383
1.87	84.7263
1.864	84.8296
1.858	84.8575
1.852	84.9107
1.846	84.9207
1.84	84.8713
1.834	84.9393
1.828	84.8231
1.822	84.8921
1.816	85.0151
1.81	85.0797
1.804	84.9771
1.798	84.959
1.792	84.9823
1.786	84.9607
1.78	85.0552
1.774	84.927
1.768	84.892
1.762	84.9614
1.756	84.9424
1.75	84.9554
1.744	85.0143
1.738	85.0659
1.732	85.0844
1.726	85.0384
1.72	85.0836
1.714	85.0757
1.708	85.0211
1.702	85.0631
1.696	84.9788
1.69	85.0145
1.684	84.9805
1.678	84.9906
1.672	85.0933
1.666	84.9992
1.66	85.0887
1.654	85.0523
1.648	84.9538
1.642	85.0864
1.636	85.0029
1.63	84.9797
1.624	85.0024
1.618	85.0201
1.612	85.0816
1.606	84.9625
1.6	85.0668
1.594	84.9992
1.588	84.9415
1.582	84.9645
1.576	84.9063
1.57	84.9927
1.564	84.9216
1.558	84.9455
1.552	84.8507
1.546	84.8753
1.54	84.8928
1.534	84.9012
1.528	84.8201
1.522	84.8449
1.516	84.8117
1.51	84.7544
1.504	84.78
1.498	84.6662
1.492	84.6825
1.486	84.5852
1.48	84.5971
1.474	84.5014
1.468	84.4702
1.462	84.5078
1.456	84.5086
1.45	84.4114
1.444	84.4182
1.438	84.3662
1.432	84.3471
1.426	84.2601
1.42	84.185
1.414	83.7509
1.408	83.805
1.402	83.9681
1.396	84.2827
1.39	84.5559
1.384	84.712
1.378	84.7113
1.372	84.6722
1.366	84.646
1.36	84.8033
1.354	84.6191
1.348	84.6211
1.342	84.7202
1.336	84.6414
1.33	84.6501
1.324	84.5948
1.318	84.6019
1.312	84.6239
1.306	84.6694
1.3	84.5699
1.294	84.6571
1.288	84.5684
1.282	84.5391
1.276	84.5928
1.27	84.5586
1.264	84.5011
1.258	84.5343
1.252	84.4604
1.246	84.5192
1.24	84.546
1.234	84.5472
1.228	84.5053
1.222	84.5078
1.216	84.4842
1.21	84.5105
1.204	84.4965
1.198	84.5125
1.192	84.5058
1.186	84.4265
1.18	84.473
1.174	84.4445
1.168	84.4846
1.162	84.4492
1.156	84.5227
1.15	84.5475
1.144	84.5022
1.138	84.5887
1.132	84.6097
1.126	84.5477
1.12	84.6236
1.114	84.659
1.108	84.6739
1.102	84.6009
1.096	84.6003
1.09	84.6495
1.084	84.7019
1.078	84.6227
1.072	84.6829
1.066	84.6546
1.06	84.7116
1.054	84.643
1.048	84.6691
1.042	84.6673
1.036	84.685
1.03	84.6002
1.024	84.7436
1.018	84.7126
1.012	84.7732
1.006	84.7898
1	84.7241
0.994	84.7412
0.988	84.8125
0.982	84.7917
0.976	84.7928
0.97	84.723
0.964	84.7812
0.958	84.7024
0.952	84.7621
0.946	84.7559
0.94	84.7639
0.934	84.7973
0.928	84.7423
0.922	84.8077
0.916	84.7627
0.91	84.7647
0.904	84.7578
0.898	84.7808
0.892	84.8039
0.886	84.727
0.88	84.7748
0.874	84.7923
0.868	84.7091
0.862	84.6952
0.856	84.7052
0.85	84.7882
0.844	84.7981
0.838	84.7597
0.832	84.7359
0.826	84.7969
0.82	84.7439
0.814	84.7596
0.808	84.7545
0.802	84.7501
0.796	84.6907
0.79	84.6627
0.784	84.606
0.778	84.553
0.772	84.4693
0.766	84.4088
0.76	84.3912
0.754	84.3797
0.748	84.3651
0.742	84.2898
0.736	84.309
0.73	84.2508
0.724	84.1772
0.718	84.1531
0.712	84.1399
0.706	84.0791
0.7	84.0724
0.694	84.0163
0.688	84.0038
0.682	83.9444
0.676	83.9056
0.67	83.8866
0.664	83.8601
0.658	83.8393
0.652	83.8118
0.646	83.7868
0.64	83.7402
0.634	83.7257
0.628	83.6997
0.622	83.6423
0.616	83.6047
0.61	83.5694
0.604	83.4835
0.598	83.4595
0.592	83.4394
0.586	83.3258
0.58	83.2209
0.574	83.1138
0.568	82.9831
0.562	82.8392
0.556	82.6989
0.55	82.5573
0.544	82.4105
0.538	82.2925
0.532	82.1824
0.526	82.0506
0.52	81.9771
0.514	81.8383
0.508	81.723
0.502	81.5763
0.496	81.3681
0.49	81.1694
0.484	80.9245
0.478	80.7282
0.472	80.5593
0.466	80.365
0.46	80.1502
0.454	79.8613
0.448	79.5879
0.442	79.3006
0.436	78.9981
0.43	78.6692
0.424	78.3434
0.418	78.0037
0.412	77.7114
0.406	77.3229
0.4	76.9083
