Name: Muscovite KAl_2(Si_3Al)O_10(OH,F)_2
Type: Mineral
Class: Silicates
Subclass: Phyllosilicates
Particle Size: 45-125um
Sample No.: PS-16A
Owner: JPL
Wavelength Range: VNIR-SWIR
Origin: USA, Connecticut
Measurement: Hemispherical reflectance
X Units: Wavelength (micrometers)
Y Units: Reflectance (percent)
wavelength	value
0.4	37.41
0.403	37.98
0.406	38.67
0.409	39.18
0.412	39.63
0.415	40.38
0.418	40.66
0.421	41
0.424	41.75
0.427	42.03
0.43	42.72
0.433	43.34
0.436	43.74
0.439	44.37
0.442	44.66
0.445	45.34
0.448	45.86
0.451	45.74
0.454	46.43
0.457	46.6
0.46	46.72
0.463	47.06
0.466	47.29
0.469	47.75
0.472	47.64
0.475	48.05
0.478	48.22
0.481	48.51
0.484	48.97
0.487	48.85
0.49	49.48
0.493	49.55
0.496	49.83
0.499	50.3
0.502	50.3
0.505	50.86
0.508	50.92
0.511	51.44
0.514	51.78
0.517	52.07
0.52	52.58
0.523	52.75
0.526	53.21
0.529	53.15
0.532	53.72
0.535	53.78
0.538	54.17
0.541	54.58
0.544	54.58
0.547	55.21
0.55	55.15
0.553	55.66
0.556	55.83
0.559	55.89
0.562	56.29
0.565	56.46
0.568	56.52
0.571	56.81
0.574	56.69
0.577	56.75
0.58	57.26
0.583	56.98
0.586	57.43
0.589	57.54
0.592	57.6
0.595	57.89
0.598	57.77
0.601	58.06
0.604	58.17
0.607	58.12
0.61	58.4
0.613	58.29
0.616	58.52
0.619	58.52
0.622	58.58
0.625	58.91
0.628	58.69
0.631	59.03
0.634	58.97
0.637	58.97
0.64	59.2
0.643	58.91
0.646	59.31
0.649	59.37
0.652	59.43
0.655	59.6
0.658	59.26
0.661	59.72
0.664	59.54
0.667	59.72
0.67	60.06
0.673	59.83
0.676	60.23
0.679	60
0.682	60.29
0.685	60.17
0.688	60.23
0.691	60.57
0.694	60.23
0.697	60.68
0.7	60.29
0.703	60.57
0.706	60.35
0.709	60.68
0.712	60.57
0.715	60.85
0.718	61.03
0.721	60.74
0.724	60.97
0.727	60.91
0.73	61.08
0.733	61.2
0.736	60.91
0.739	61.2
0.742	60.97
0.745	61.2
0.748	61.26
0.751	61.08
0.754	61.37
0.757	61.26
0.76	61.43
0.763	61.43
0.766	61.14
0.769	61.31
0.772	61.2
0.775	61.26
0.778	61.37
0.781	60.97
0.784	61.31
0.787	61.08
0.79	61.14
0.793	61.31
0.796	61.08
0.799	61.72
0.808	61.72
0.82	61.49
0.832	61.54
0.844	61.26
0.856	61.08
0.868	61.08
0.88	60.8
0.892	61.03
0.904	60.85
0.916	60.85
0.928	60.85
0.94	60.91
0.952	61.03
0.964	60.97
0.976	61.14
0.988	61.37
1	61.49
1.012	61.49
1.024	61.49
1.036	61.72
1.048	61.72
1.06	61.6
1.072	61.66
1.084	61.72
1.096	61.83
1.108	61.83
1.12	61.95
1.132	62.06
1.144	61.89
1.156	62.11
1.168	62.03
1.18	62.31
1.192	62.17
1.204	62.45
1.216	62.34
1.228	62.39
1.24	62.45
1.252	62.28
1.264	62.54
1.276	62.59
1.288	62.63
1.3	62.62
1.312	62.66
1.324	62.69
1.336	62.68
1.348	62.89
1.36	62.89
1.372	62.66
1.384	62.32
1.396	58.05
1.408	52.6
1.42	56.89
1.432	61.91
1.444	63.01
1.456	63.13
1.468	63.36
1.48	63.47
1.492	63.7
1.504	63.82
1.516	63.76
1.528	63.82
1.54	63.82
1.552	63.86
1.564	63.76
1.576	63.76
1.588	63.82
1.6	63.92
1.612	63.74
1.624	63.78
1.636	63.65
1.648	63.69
1.66	63.68
1.672	63.67
1.684	63.59
1.696	63.57
1.708	63.57
1.72	63.63
1.732	63.51
1.744	63.34
1.756	63.51
1.768	63.34
1.78	63.51
1.792	63.4
1.804	63.32
1.816	63.32
1.828	63.09
1.84	63.14
1.852	62.98
1.864	63.07
1.876	62.72
1.888	62.35
1.9	61.66
1.912	61.31
1.924	61.13
1.936	61.22
1.948	61.32
1.96	61.62
1.972	61.74
1.984	61.92
1.996	61.93
2.008	62.15
2.02	62.18
2.032	62.37
2.044	62.16
2.056	62.21
2.068	62.25
2.08	62.12
2.092	61.65
2.104	61.18
2.116	60.88
2.128	60.65
2.14	60.18
2.152	59.28
2.164	56.94
2.176	52.86
2.188	47.8
2.2	45.9
2.212	48.32
2.224	52.23
2.236	55.01
2.248	56.23
2.26	57.07
2.272	57.39
2.284	57.15
2.296	56.27
2.308	54.83
2.32	52.54
2.332	50.57
2.344	49.36
2.356	49.08
2.368	49.4
2.38	49.44
2.392	49.23
2.404	48.39
2.416	47.28
2.428	46.05
2.44	45.66
2.452	45.65
2.464	46.02
2.476	46.51
2.488	47.1
2.5	47.64
