Name: Muscovite-Biotite Granite
Type: Rock
Class: Igneous
Subclass: Felsic
Particle Size: Solid surface
Sample No.: Ward12.txt
Owner: JPL
Origin: Ward's Collection of American Rocks.  Sample locality - Concord, Merrimack County, New Hampshire.
Description: A light-colored medium-grained rock composed of feldspar,
Measurement: Hemispherical reflectance
X Units: Wavelength (micrometers)
Y Units: Reflectance (percent)
wavelength	value
15.3871	5.22109
15.118	3.95185
14.8581	3.66019
14.6069	4.02
14.3642	4.12492
14.1293	4.28457
13.9021	5.05771
13.682	5.32592
13.4687	4.93141
13.2621	5.38549
13.0616	6.44372
12.8672	7.93994
12.6784	6.73289
12.4951	7.80141
12.317	3.40942
12.1439	3.60521
11.9757	4.40441
11.812	4.97527
11.6527	5.47355
11.4977	5.83875
11.3468	6.44223
11.1997	6.85591
11.0564	7.13879
10.9168	7.47613
10.7806	8.22145
10.6478	8.80084
10.5182	9.58034
10.3917	10.9818
10.2683	12.5004
10.1477	14.8598
10.0299	17.8222
9.9148	20.6864
9.8024	20.8858
9.6925	22.2148
9.585	24.2755
9.4798	25.0096
9.377	27.3764
9.2763	31.5154
9.1778	31.8404
9.0814	30.2008
8.987	28.8754
8.8945	29.3106
8.8039	29.4225
8.7151	29.5165
8.6281	24.5411
8.5428	29.9247
8.4592	29.7711
8.3772	28.9477
8.2967	26.6518
8.2179	23.992
8.1404	18.6718
8.0645	11.9235
7.9899	7.56655
7.9167	4.48077
7.8449	2.91412
7.7743	2.15671
7.705	1.65496
7.6369	1.31602
7.57	1.06791
7.5043	1.05085
7.4397	1.16806
7.3762	1.0519
7.3138	1.1413
7.2524	1.18792
7.1921	1.34115
7.1327	1.35147
7.0743	1.38314
7.0169	1.4474
6.9604	1.54731
6.9047	1.65341
6.85	1.77839
6.7962	1.84208
6.7431	1.91278
6.6909	1.95836
6.6395	2.0879
6.5889	2.18044
6.539	2.04443
6.49	2.23872
6.4416	2.31818
6.3939	2.41579
6.347	2.3687
6.3007	2.19004
6.2551	2.21733
6.2101	2.2161
6.1658	2.2399
6.1222	2.52169
6.0791	2.57133
6.0366	2.53037
5.9948	2.69407
5.9535	2.71676
5.9127	2.62682
5.8726	2.68958
5.8329	2.82874
5.7938	2.86984
5.7552	2.95241
5.7172	2.94224
5.6796	2.87171
5.6425	2.98365
5.6059	2.91785
5.5698	2.85165
5.5341	2.98621
5.4989	3.03425
5.4641	3.23181
5.4298	3.47758
5.3959	3.32131
5.3624	3.35071
5.3294	3.34094
5.2967	3.46654
5.2644	3.50862
5.2326	3.62708
5.2011	3.8403
5.17	4.01514
5.1392	3.95816
5.1088	4.21642
5.0788	4.14928
5.0491	4.23537
5.0198	4.41278
4.9908	4.41014
4.9622	4.66914
4.9338	4.78798
4.9058	4.87259
4.8781	5.44737
4.8508	5.70431
4.8237	6.05018
4.7969	6.19563
4.7704	6.23713
4.7443	6.53971
4.7184	6.63042
4.6927	6.65457
4.6674	6.76888
4.6423	7.1576
4.6175	7.55147
4.593	8.00667
4.5687	8.27486
4.5447	8.42894
4.5209	8.42844
4.4974	8.2133
4.4741	8.34916
4.451	8.72129
4.4282	9.23153
4.4057	9.7769
4.3833	10.5408
4.3612	11.1793
4.3393	12.0305
4.3176	12.6435
4.2962	12.8711
4.2749	13.3797
4.2539	14.0864
4.233	14.2461
4.2124	14.6564
4.192	14.9732
4.1717	15.553
4.1517	15.7536
4.1319	16.3961
4.1122	16.5272
4.0927	17.0883
4.0734	17.4787
4.0543	17.5305
4.0354	17.6377
4.0166	17.629
3.9981	17.4314
3.9796	17.5582
3.9614	17.8282
3.9433	18.5649
3.9254	18.9547
3.9077	19.158
3.8901	19.0894
3.8726	19.1852
3.8554	19.137
3.8382	19.3794
3.8213	19.8361
3.8045	20.0825
3.7878	20.1019
3.7713	19.9691
3.7549	19.851
3.7386	19.6223
3.7225	19.8541
3.7066	20.1526
3.6907	20.3608
3.675	20.8862
3.6595	21.0565
3.644	21.4766
3.6287	21.2828
3.6136	21.1616
3.5985	21.3133
3.5836	20.8437
3.5688	20.6153
3.5541	20.4851
3.5396	20.1219
3.5251	19.5832
3.5108	19.0059
3.4966	18.807
3.4825	18.587
3.4685	18.7559
3.4547	18.9797
3.4409	18.5451
3.4273	18.3246
3.4137	17.7279
3.4003	17.4243
3.387	17.4387
3.3738	16.6555
3.3606	16.9249
3.3476	16.4878
3.3347	16.1152
3.3219	16.0013
3.3092	15.3891
3.2965	15.0352
3.284	14.6005
3.2716	14.383
3.2593	14.2915
3.247	14.1878
3.2348	13.5443
3.2228	13.6428
3.2108	13.4477
3.1989	13.0004
3.1871	12.8223
3.1754	12.5525
3.1638	12.3098
3.1523	11.6499
3.1408	11.9637
3.1294	11.3999
3.1181	11.3647
3.1069	10.9952
3.0958	10.6891
3.0848	10.9138
3.0738	10.9666
3.0629	10.6474
3.0521	10.5715
3.0413	10.1648
3.0307	10.4981
3.0201	10.2231
3.0096	10.1111
2.9991	10.2218
2.9887	10.0454
2.9784	10.3535
2.9682	10.0456
2.9581	11.0005
2.948	10.5745
2.9379	10.3488
2.928	10.8636
2.9181	10.3699
2.9083	11.0603
2.8985	11.0002
2.8888	10.6667
2.8792	11.1553
2.8697	11.3691
2.8602	11.0556
2.8507	11.2168
2.8413	11.8489
2.832	11.3746
2.8228	11.7373
2.8136	11.2068
2.8045	11.3122
2.7954	10.2199
2.7864	10.4181
2.7774	10.5263
2.7685	10.6617
2.7597	9.87133
2.7509	10.4781
2.7422	11.1895
2.7335	11.4418
2.7249	13.691
2.7163	16.1034
2.7078	17.8747
2.6994	19.1232
2.691	22.2226
2.6826	25.2897
2.6743	26.2164
2.666	27.644
2.6578	27.7558
2.6497	27.8816
2.6416	28.1154
2.6336	28.3387
2.6256	28.4283
2.6176	29.0936
2.6097	28.6668
2.6018	29.0333
2.594	30.024
2.5863	29.1919
2.5785	29.9748
2.5709	29.9196
2.5633	29.6523
2.5557	29.7825
2.5481	29.9819
2.5406	30.2286
2.5332	29.8949
2.5258	29.4853
2.5184	29.3017
2.5111	29.6732
2.5038	29.7173
2.4966	29.3184
2.4894	29.8755
2.4823	29.5036
2.4752	29.8643
2.4681	29.4384
2.4611	28.506
2.4541	28.9149
2.4471	29.0969
2.4402	27.9146
2.4333	29.2734
2.4265	28.9961
2.4197	29.4161
2.413	30.1676
2.4063	29.6162
2.3996	29.7055
2.3929	29.3469
2.3863	30.3798
2.3798	29.3043
2.3732	29.256
2.3667	29.3879
2.3603	28.9052
2.3538	28.9275
2.3474	29.3195
2.3411	29.1248
2.3347	30.3981
2.3285	30.3526
2.3222	31.7307
2.316	32.1981
2.3098	32.7526
2.3036	34.6104
2.2975	33.8673
2.2914	34.5588
2.2854	34.3274
2.2793	34.3104
2.2733	34.3272
2.2674	33.8954
2.2614	32.5896
2.2555	33.6807
2.2497	33.9032
2.2438	33.1954
2.238	32.8575
2.2322	33.1374
2.2265	32.8884
2.2208	31.073
2.2151	30.7102
2.2094	31.5038
2.2038	30.98
2.1982	31.1389
2.1926	32.3981
2.187	32.8914
2.1815	34.1945
2.176	35.4611
2.1706	35.0911
2.1651	36.0652
2.1597	36.5319
2.1543	36.9301
2.149	36.1465
2.1436	37.1275
2.1383	35.9999
2.1331	36.3707
2.1278	36.4436
2.1226	36.531
2.1174	37.3914
2.1122	36.6658
2.1071	35.7705
2.1019	36.1995
2.0968	36.0884
2.0918	35.7999
2.0867	36.2067
2.0817	37.5718
2.0767	37.5422
2.0717	38.27
2.0667	38.0356
2.0618	37.9713
2.0569	38.7277
2.052	36.6378
2.0472	38.5315
2.0423	38.2002
2.0375	37.2393
2.0327	36.7527
2.028	39.23
2.0232	37.1608
2.0185	35.2874
2.0138	38.7225
2.0091	36.1651
2.0044	37.4785
1.9998	36.4609
