Name: Scheelite CaWO_4
Type: Mineral
Class: Tungstates
Particle Size: 0-45um
Sample No.: T-1A
Owner: JPL
Origin: USA, California, Kern County, Atolia.
Measurement: Hemispherical reflectance
X Units: Wavelength (micrometers)
Y Units: Reflectance (percent)
wavelength	value
2.5	74.5659
2.494	74.4882
2.488	74.5014
2.482	74.5708
2.476	74.5611
2.47	74.9082
2.464	75.0059
2.458	75.0541
2.452	75.2178
2.446	75.1682
2.44	75.3119
2.434	75.3301
2.428	75.4563
2.422	75.6237
2.416	75.797
2.41	75.8708
2.404	76.0814
2.398	76.1361
2.392	76.32
2.386	76.3956
2.38	76.5562
2.374	76.6647
2.368	76.7781
2.362	76.8721
2.356	76.9568
2.35	76.914
2.344	76.9939
2.338	77.0723
2.332	77.0912
2.326	77.1783
2.32	77.1638
2.314	77.1623
2.308	77.1356
2.302	77.2204
2.296	77.2673
2.29	77.3387
2.284	77.3686
2.278	77.4612
2.272	77.531
2.266	77.5554
2.26	77.6167
2.254	77.7063
2.248	77.7346
2.242	77.8544
2.236	77.8095
2.23	77.8347
2.224	77.8382
2.218	77.9106
2.212	77.9234
2.206	77.9243
2.2	78.0976
2.194	78.1467
2.188	78.3295
2.182	78.5149
2.176	78.7148
2.17	78.9491
2.164	79.0875
2.158	79.2065
2.152	79.3863
2.146	79.5225
2.14	79.4592
2.134	79.3638
2.128	79.2835
2.122	79.019
2.116	78.7592
2.11	78.5634
2.104	78.3086
2.098	78.143
2.092	78.2416
2.086	78.2533
2.08	78.3701
2.074	78.3919
2.068	78.4726
2.062	78.5156
2.056	78.5064
2.05	78.5923
2.044	78.6685
2.038	78.6442
2.032	78.668
2.026	78.718
2.02	78.6002
2.014	78.5685
2.008	78.5179
2.002	78.4634
1.996	78.3798
1.99	78.2226
1.984	78.1174
1.978	78.0192
1.972	77.8897
1.966	77.7795
1.96	77.7629
1.954	77.668
1.948	77.5487
1.942	77.499
1.936	77.5282
1.93	77.6281
1.924	77.6272
1.918	77.7168
1.912	77.8599
1.906	78.1223
1.9	78.4956
1.894	78.9323
1.888	79.2448
1.882	79.4419
1.876	79.5816
1.87	79.6558
1.864	79.6827
1.858	79.7065
1.852	79.7326
1.846	79.8301
1.84	79.8258
1.834	79.742
1.828	79.801
1.822	79.7778
1.816	79.8159
1.81	79.839
1.804	79.8041
1.798	79.845
1.792	79.7772
1.786	79.7939
1.78	79.7713
1.774	79.6992
1.768	79.7045
1.762	79.7208
1.756	79.72
1.75	79.7594
1.744	79.8054
1.738	79.7733
1.732	79.7732
1.726	79.7768
1.72	79.8125
1.714	79.7753
1.708	79.7861
1.702	79.7543
1.696	79.7934
1.69	79.8021
1.684	79.8708
1.678	79.8267
1.672	79.8283
1.666	79.7864
1.66	79.835
1.654	79.737
1.648	79.8437
1.642	79.7783
1.636	79.782
1.63	79.7671
1.624	79.809
1.618	79.7967
1.612	79.7175
1.606	79.6985
1.6	79.7621
1.594	79.8117
1.588	79.7533
1.582	79.712
1.576	79.7641
1.57	79.7055
1.564	79.613
1.558	79.6102
1.552	79.6283
1.546	79.5466
1.54	79.5804
1.534	79.4887
1.528	79.5432
1.522	79.4879
1.516	79.4116
1.51	79.4184
1.504	79.4221
1.498	79.3537
1.492	79.3234
1.486	79.3006
1.48	79.2576
1.474	79.2299
1.468	79.1912
1.462	79.1017
1.456	79.1572
1.45	79.1112
1.444	79.056
1.438	79.0519
1.432	78.9849
1.426	78.9265
1.42	78.8303
1.414	78.6779
1.408	78.7986
1.402	78.8665
1.396	78.9981
1.39	79.1322
1.384	79.1628
1.378	79.2048
1.372	79.1032
1.366	79.2271
1.36	79.0842
1.354	79.0564
1.348	79.0361
1.342	78.9646
1.336	78.9974
1.33	78.919
1.324	78.9306
1.318	78.8356
1.312	78.8152
1.306	78.7859
1.3	78.7511
1.294	78.699
1.288	78.6816
1.282	78.6702
1.276	78.604
1.27	78.5885
1.264	78.4858
1.258	78.4372
1.252	78.3981
1.246	78.357
1.24	78.2944
1.234	78.2362
1.228	78.1334
1.222	78.1783
1.216	78.0681
1.21	78.0275
1.204	77.8952
1.198	77.873
1.192	77.8489
1.186	77.74
1.18	77.725
1.174	77.7112
1.168	77.598
1.162	77.5731
1.156	77.4547
1.15	77.3892
1.144	77.3141
1.138	77.2736
1.132	77.2082
1.126	77.0872
1.12	77.027
1.114	76.933
1.108	76.8057
1.102	76.6735
1.096	76.6339
1.09	76.6008
1.084	76.3911
1.078	76.3816
1.072	76.2462
1.066	76.2395
1.06	76.1765
1.054	76.0397
1.048	75.876
1.042	75.8934
1.036	75.7854
1.03	75.6776
1.024	75.6079
1.018	75.524
1.012	75.5453
1.006	75.4375
1	75.3406
0.994	75.2542
0.988	75.2224
0.982	75.1372
0.976	75.1009
0.97	75.0025
0.964	74.9605
0.958	74.9028
0.952	74.8253
0.946	74.7877
0.94	74.7272
0.934	74.675
0.928	74.6581
0.922	74.6322
0.916	74.566
0.91	74.5858
0.904	74.5228
0.898	74.4894
0.892	74.4863
0.886	74.4271
0.88	74.4482
0.874	74.4477
0.868	74.3859
0.862	74.4507
0.856	74.6352
0.85	74.6072
0.844	74.6397
0.838	74.6238
0.832	74.6339
0.826	74.6795
0.82	74.7196
0.814	74.73
0.808	74.7336
0.802	74.7075
0.796	74.6434
0.79	74.6394
0.784	74.6672
0.778	74.5969
0.772	74.5077
0.766	74.5196
0.76	74.396
0.754	74.3213
0.748	74.2579
0.742	74.1194
0.736	74.0273
0.73	73.8805
0.724	73.7812
0.718	73.6094
0.712	73.4219
0.706	73.2609
0.7	73.1147
0.694	72.9331
0.688	72.748
0.682	72.5792
0.676	72.4184
0.67	72.2336
0.664	72.0755
0.658	71.9337
0.652	71.7644
0.646	71.5977
0.64	71.4414
0.634	71.2874
0.628	71.1104
0.622	70.9454
0.616	70.759
0.61	70.58
0.604	70.3401
0.598	70.1243
0.592	69.8451
0.586	69.4922
0.58	69.0968
0.574	68.6346
0.568	68.1205
0.562	67.5236
0.556	66.8282
0.55	66.0902
0.544	65.2986
0.538	64.4584
0.532	63.6136
0.526	62.7614
0.52	61.9134
0.514	61.0933
0.508	60.3173
0.502	59.5222
0.496	58.7783
0.49	58.1013
0.484	57.4804
0.478	57.0532
0.472	56.6749
0.466	56.2994
0.46	55.9051
0.454	55.4323
0.448	54.8144
0.442	53.9915
0.436	53.0739
0.43	52.0802
0.424	51.1921
0.418	50.3595
0.412	49.6237
0.406	48.9005
0.4	48.1319
