Name: Glossy Black Paint
Type: Manmade materials
Class: General Construction Materials
Subclass: Paints
Particle Size: Solid
Sample No.: DM625
Owner: JPL
Origin: Design Master, P.O. Box 601, Boulder, CO 80306
Description: Glossy black spray paint
Measurement: Hemispherical reflectance
X Units: Wavelength (micrometers)
Y Units: Reflectance (percent)
wavelength	value
14.0131	25.7645
13.7895	22.442
13.5729	17.6442
13.363	10.0939
13.1595	13.3195
12.9621	15.0289
12.7705	12.6474
12.5845	12.7895
12.4039	14.4148
12.2284	11.6385
12.0578	8.03192
11.8918	6.62294
11.7304	4.75251
11.5733	3.5463
11.4203	3.30744
11.2714	6.88743
11.1263	10.954
10.9848	13.2084
10.8469	12.6199
10.7125	15.4374
10.5813	13.404
10.4533	11.9985
10.3284	8.52284
10.2064	6.19407
10.0872	5.60215
9.97084	5.73912
9.8571	5.78683
9.74592	5.78099
9.63724	5.46323
9.53094	5.54227
9.42697	6.01066
9.32524	5.63966
9.22568	4.99302
9.12823	4.47006
9.03281	4.39041
8.93937	4.96804
8.84784	4.78868
8.75816	5.30757
8.67029	4.842
8.58416	3.73212
8.49973	3.42509
8.41693	4.47546
8.33574	4.18251
8.2561	4.76631
8.17797	5.14822
8.10131	4.89952
8.02606	5.07876
7.9522	5.15877
7.87969	5.50532
7.80849	6.07776
7.73856	2.37687
7.66987	3.68356
7.60239	6.11932
7.5361	6.16571
7.47094	5.73785
7.4069	5.14736
7.34396	4.79147
7.28207	3.96951
7.22122	3.63748
7.16137	4.62969
7.10251	5.97669
7.04461	6.23025
6.98765	6.43416
6.9316	7.01053
6.87644	5.83404
6.82215	5.51705
6.76871	6.31777
6.71611	11.6052
6.66431	13.059
6.61331	13.1842
6.56308	12.8945
6.51361	12.3278
6.46488	11.2924
6.41687	10.4729
6.36957	9.75248
6.32297	9.22234
6.27704	9.50906
6.23177	9.8264
6.18715	9.67331
6.14317	6.7823
6.0998	6.16991
6.05705	5.59699
6.01489	4.52634
5.97331	3.09875
5.9323	3.83197
5.89186	5.7575
5.85196	5.33467
5.81259	4.52841
5.77376	4.35951
5.73543	3.87463
5.69762	2.78789
5.6603	3.09495
5.62347	7.19343
5.5871	9.79074
5.55121	10.8669
5.51578	11.4463
5.4808	11.5127
5.44625	11.3401
5.41214	11.0124
5.37846	10.7853
5.34519	10.5215
5.31233	10.1927
5.27987	10.1683
5.24781	10.1229
5.21613	10.0974
5.18483	10.2045
5.15391	10.3746
5.12335	10.3898
5.09316	10.5007
5.06331	10.6205
5.03382	10.6083
5.00467	10.631
4.97585	10.3772
4.94736	10.2613
4.9192	10.1751
4.89135	9.86558
4.86382	9.64896
4.8366	9.4816
4.80968	9.21654
4.78306	9.17006
4.75673	8.93227
4.73069	8.75521
4.70493	8.74519
4.67945	8.77583
4.65425	8.77212
4.62932	8.78086
4.60465	8.78726
4.58024	8.82459
4.55609	8.84036
4.5322	8.97134
4.50855	8.94324
4.48515	8.9224
4.46199	8.82352
4.43907	8.89093
4.41638	8.67288
4.39393	8.51352
4.3717	8.45199
4.34969	8.17353
4.32791	8.20138
4.30634	7.99256
4.28499	7.92814
4.26384	7.81533
4.24291	7.77579
4.22218	7.6602
4.20165	7.80837
4.18132	7.87885
4.16118	7.7424
4.14124	7.77172
4.12149	7.69796
4.10192	7.69607
4.08255	7.59044
4.06335	7.73121
4.04433	7.60719
4.02549	7.53942
4.00683	7.42767
3.98833	7.36655
3.97001	7.4038
3.95186	7.38006
3.93386	7.02495
3.91604	6.85815
3.89837	7.01899
3.88086	6.96676
3.86351	6.88561
3.84631	7.07208
3.82927	6.83923
3.81238	6.78181
3.79563	6.72612
3.77903	6.81261
3.76258	6.70562
3.74627	6.64162
3.7301	6.7282
3.71406	6.64282
3.69817	6.71523
3.68241	6.59872
3.66678	6.50815
3.65129	6.54495
3.63593	6.35545
3.62069	6.48668
3.60559	6.45365
3.59061	6.36615
3.57575	6.37441
3.56101	6.10576
3.5464	6.07384
3.5319	5.8467
3.51753	5.55516
3.50327	4.96038
3.48912	4.88507
3.47509	4.56532
3.46117	4.58326
3.44736	4.58914
3.43367	4.39189
3.42007	4.07566
3.40659	4.02214
3.39322	3.99018
3.37994	4.13405
3.36678	3.94832
3.35371	3.73655
3.34074	3.98411
3.32788	4.80366
3.31511	5.29693
3.30244	5.32277
3.28987	5.37286
3.27739	5.46978
3.26501	5.48716
3.25272	5.57043
3.24052	5.65982
3.22841	5.5085
3.2164	5.61342
3.20447	5.55244
3.19263	5.46773
3.18088	5.58652
3.16921	5.49631
3.15763	5.32402
3.14614	5.41863
3.13472	5.5261
3.12339	5.5683
3.11214	5.38897
3.10098	5.33588
3.08989	5.26749
3.07888	5.19988
3.06795	5.28702
3.0571	5.23435
3.04632	5.20504
3.03562	4.96859
3.02499	5.17106
3.01444	5.09914
3.00396	5.09712
2.99355	5.06838
2.98322	4.85654
2.97295	4.85979
2.96276	4.686
2.95264	4.8107
2.94258	4.82941
2.9326	4.59195
2.92268	4.67515
2.91283	4.54696
2.90304	4.53286
2.89332	4.43112
2.88367	4.30917
2.87408	4.23478
2.86455	4.27441
2.85508	4.39969
2.84568	4.33103
2.83634	4.36786
2.82706	4.43693
2.81784	4.54253
2.80869	4.45539
2.79959	4.68585
2.79055	4.61979
2.78156	4.78684
2.77264	4.56199
2.76377	4.96906
2.75496	4.82935
2.7462	4.87103
2.7375	4.8526
2.72886	4.58473
2.72027	4.97276
2.71173	4.78313
2.70325	4.6029
2.69482	4.83798
2.68644	4.67938
2.67812	4.64423
2.66984	4.77564
2.66162	4.63349
2.65345	4.74955
2.64532	4.59039
2.63725	4.72732
2.62923	4.53842
2.62125	4.82993
2.61332	4.65226
2.60544	4.43016
2.59761	4.69701
2.58983	4.66602
2.58209	4.541
2.5744	4.64563
2.56675	4.64367
2.55915	4.69743
2.55159	4.50476
2.54408	4.62914
2.53661	4.60137
2.52919	4.25952
2.52181	4.48674
2.51447	4.68029
2.50717	4.57446
2.49992	4.4795
2.49271	4.25578
2.48554	4.4151
2.47841	4.37415
2.47132	4.40877
2.46427	4.36437
2.45727	4.3827
2.4503	4.16925
2.44337	4.23682
2.43648	4.4006
2.42963	4.28985
2.42282	4.24052
2.41605	4.15661
2.40931	4.41677
2.40261	4.26105
2.39595	4.38231
2.38932	4.18422
2.38274	4.24618
2.37618	4.26646
2.36967	4.15351
2.36319	4.19545
2.35674	4.24416
2.35033	4.31324
2.34396	4.33797
2.33762	4.22425
2.33131	4.02116
2.32504	4.2345
2.3188	4.3636
2.31259	4.20185
2.30642	4.06022
2.30028	4.05234
2.29417	4.28751
2.2881	3.95586
2.28206	3.98662
2.27605	4.17985
2.27007	4.06302
2.26412	3.98194
2.2582	4.21337
2.25232	4.08461
2.24646	4.03506
2.24064	4.14904
2.23484	4.22483
2.22908	3.82036
2.22334	4.06638
2.21764	4.32717
2.21196	4.16549
2.20631	3.85337
2.20069	4.26713
2.1951	4.01535
2.18954	3.97504
2.18401	4.15522
2.1785	4.09245
2.17302	4.10983
2.16757	3.91392
2.16215	3.89942
2.15675	4.04631
2.15138	3.94172
2.14604	4.0222
2.14072	3.9171
2.13543	3.86515
2.13017	4.08353
2.12493	3.96181
2.11972	3.75301
2.11453	3.77978
2.10937	4.08758
2.10423	3.97545
2.09912	4.18607
2.09404	4.10661
2.08897	3.98245
2.08394	3.76747
2.07892	3.40665
2.07393	3.53627
2.06897	4.31188
2.06403	3.9832
2.05911	4.14939
2.05421	3.63671
2.04934	4.04684
2.04449	3.93786
2.03967	3.64032
2.03486	4.05246
2.03008	4.0806
2.02533	3.92827
2.02059	4.13167
2.01588	3.71165
2.01118	3.84833
2.00651	3.84985
2.00187	4.04782
