Name: Kaolinite Al_2Si_2O_5(OH)_4
Type: Mineral
Class: Silicates
Subclass: Phyllosilicates
Particle Size: 0-45um
Sample No.: PS-1A
Owner: JPL
Wavelength Range: VNIR-SWIR
Origin: USA, Georgia, Washington County
Description: Well-ordered Kaolinite.
Measurement: Hemispherical reflectance
X Units: Wavelength (micrometers)
Y Units: Reflectance (percent)
wavelength	value
0.4	74.24
0.403	74.91
0.406	75.66
0.409	76
0.412	76.64
0.415	77.1
0.418	77.51
0.421	78
0.424	78.55
0.427	79.01
0.43	79.35
0.433	79.9
0.436	80.24
0.439	80.65
0.442	80.95
0.445	81.3
0.448	81.58
0.451	81.74
0.454	82.09
0.457	82.37
0.46	82.53
0.463	82.82
0.466	83.14
0.469	83.53
0.472	83.69
0.475	83.97
0.478	84.06
0.481	84.29
0.484	84.47
0.487	84.72
0.49	84.79
0.493	84.96
0.496	85
0.499	85.32
0.502	85.65
0.505	85.66
0.508	85.97
0.511	86.13
0.514	86.33
0.517	86.58
0.52	86.69
0.523	87.03
0.526	86.93
0.529	87.16
0.532	87.27
0.535	87.38
0.538	87.67
0.541	87.68
0.544	87.71
0.547	87.98
0.55	88.12
0.553	88.3
0.556	88.17
0.559	88.32
0.562	89
0.565	88.84
0.568	88.97
0.571	88.96
0.574	88.88
0.577	89.09
0.58	89.15
0.583	89.16
0.586	89.26
0.589	89.21
0.592	89.56
0.595	89.63
0.598	89.82
0.601	89.84
0.604	89.97
0.607	90.01
0.61	90.13
0.613	90.25
0.616	90.13
0.619	90.14
0.622	90.26
0.625	90.47
0.628	90.42
0.631	90.66
0.634	90.77
0.637	90.7
0.64	90.82
0.643	90.94
0.646	91
0.649	90.94
0.652	91.22
0.655	91.18
0.658	91.29
0.661	91.29
0.664	91.28
0.667	91.41
0.67	91.35
0.673	91.47
0.676	91.63
0.679	91.69
0.682	91.64
0.685	91.87
0.688	91.81
0.691	91.98
0.694	92.03
0.697	92.03
0.7	92.05
0.703	92.27
0.706	92.21
0.709	92.44
0.712	92.5
0.715	92.56
0.718	92.61
0.721	92.5
0.724	92.5
0.727	92.73
0.73	92.79
0.733	92.73
0.736	92.9
0.739	92.73
0.742	92.79
0.745	92.85
0.748	93.02
0.751	92.91
0.754	93.02
0.757	92.96
0.76	92.96
0.763	92.96
0.766	93.02
0.769	93.2
0.772	93.14
0.775	93.14
0.778	93.14
0.781	93.25
0.784	93.31
0.787	93.26
0.79	93.2
0.793	93.26
0.796	93.31
0.799	93.36
0.808	93.46
0.82	93.46
0.832	93.58
0.844	93.63
0.856	93.75
0.868	93.87
0.88	93.87
0.892	93.99
0.904	93.87
0.916	93.93
0.928	93.87
0.94	93.58
0.952	93.16
0.964	93.04
0.976	94.17
0.988	94.23
1	94.29
1.012	94.35
1.024	94.35
1.036	94.41
1.048	94.35
1.06	94.41
1.072	94.47
1.084	94.46
1.096	94.46
1.108	94.4
1.12	94.46
1.132	94.52
1.144	94.35
1.156	94.28
1.168	94.31
1.18	94.29
1.192	94.1
1.204	94.02
1.216	93.72
1.228	92.95
1.24	92.91
1.252	93.2
1.264	93.24
1.276	92.93
1.288	91.63
1.3	90.58
1.312	89.98
1.324	89.33
1.336	89.06
1.348	86.59
1.36	86.08
1.372	84.08
1.384	77.3
1.396	75.48
1.408	73.54
1.42	87.5
1.432	90.66
1.444	91.55
1.456	92.08
1.468	92.48
1.48	92.77
1.492	92.65
1.504	93.17
1.516	93.46
1.528	93.47
1.54	93.47
1.552	93.41
1.564	93.47
1.576	93.41
1.588	93.52
1.6	93.63
1.612	93.56
1.624	93.65
1.636	93.57
1.648	93.48
1.66	93.4
1.672	93.32
1.684	93.13
1.696	93
1.708	92.87
1.72	92.53
1.732	92.25
1.744	92.13
1.756	91.67
1.768	91.15
1.78	90.47
1.792	89.88
1.804	89.47
1.816	89.27
1.828	89.41
1.84	89.4
1.852	90.17
1.864	90.02
1.876	89.02
1.888	87.95
1.9	86.68
1.912	85.95
1.924	85.85
1.936	85.71
1.948	85.78
1.96	85.99
1.972	86.05
1.984	86.12
1.996	86
2.008	85.79
2.02	85.49
2.032	85.05
2.044	84.59
2.056	83.78
2.068	82.63
2.08	81.52
2.092	80.42
2.104	79.13
2.116	77.67
2.128	75.21
2.14	69.43
2.152	63.41
2.164	61.82
2.176	61.93
2.188	59.7
2.2	56.79
2.212	61.74
2.224	69.29
2.236	71.28
2.248	70.88
2.26	69.92
2.272	68.56
2.284	66.94
2.296	65.13
2.308	63.4
2.32	62.9
2.332	62.66
2.344	61.65
2.356	60.49
2.368	59.23
2.38	58.45
2.392	59.02
2.404	59.51
2.416	58.71
2.428	56.89
2.44	54.85
2.452	53.32
2.464	52.09
2.476	50.92
2.488	49.99
2.5	49.22
