Name: Bornite Cu_5FeS_4
Type: Mineral
Class: Sulfides
Particle Size: 45-125um
Sample No.: S-9A
Owner: JPL
Wavelength Range: VNIR-SWIR
Origin: USA, Arizona, Pinal County, Superior, Magma Mine
Measurement: Hemispherical reflectance
X Units: Wavelength (micrometers)
Y Units: Reflectance (percent)
wavelength	value
0.4	7.96
0.403	7.86
0.406	7.73
0.409	7.8
0.412	7.75
0.415	7.5
0.418	7.44
0.421	7.44
0.424	7.31
0.427	7.31
0.43	7.2
0.433	7.01
0.436	7.08
0.439	6.96
0.442	6.88
0.445	6.81
0.448	6.62
0.451	6.7
0.454	6.63
0.457	6.52
0.46	6.52
0.463	6.46
0.466	6.34
0.469	6.28
0.472	6.22
0.475	6.16
0.478	6.2
0.481	6.14
0.484	5.96
0.487	5.95
0.49	5.94
0.493	5.9
0.496	5.81
0.499	5.8
0.502	5.73
0.505	5.79
0.508	5.62
0.511	5.63
0.514	5.5
0.517	5.49
0.52	5.41
0.523	5.34
0.526	5.34
0.529	5.3
0.532	5.26
0.535	5.16
0.538	5.12
0.541	5.05
0.544	5.03
0.547	5.11
0.55	5.02
0.553	5.07
0.556	4.93
0.559	4.87
0.562	5
0.565	5.01
0.568	4.9
0.571	4.94
0.574	4.94
0.577	4.91
0.58	4.93
0.583	4.88
0.586	4.8
0.589	4.87
0.592	4.87
0.595	4.93
0.598	4.86
0.601	4.9
0.604	4.97
0.607	5.06
0.61	5.04
0.613	5.11
0.616	5.1
0.619	5.06
0.622	5.21
0.625	5.16
0.628	5.15
0.631	5.28
0.634	5.28
0.637	5.33
0.64	5.39
0.643	5.41
0.646	5.49
0.649	5.56
0.652	5.51
0.655	5.58
0.658	5.73
0.661	5.74
0.664	5.83
0.667	5.8
0.67	5.73
0.673	5.84
0.676	6.01
0.679	6.02
0.682	6.02
0.685	6
0.688	6.17
0.691	6.25
0.694	6.24
0.697	6.3
0.7	6.29
0.703	6.39
0.706	6.57
0.709	6.63
0.712	6.6
0.715	6.64
0.718	6.7
0.721	6.88
0.724	6.99
0.727	6.87
0.73	6.99
0.733	7
0.736	7.15
0.739	7.22
0.742	7.22
0.745	7.24
0.748	7.38
0.751	7.39
0.754	7.49
0.757	7.59
0.76	7.56
0.763	7.63
0.766	7.75
0.769	7.72
0.772	7.75
0.775	7.88
0.778	7.94
0.781	8.04
0.784	7.97
0.787	8.05
0.79	8.09
0.793	8.2
0.796	8.35
0.799	8.33
0.808	8.76
0.82	8.99
0.832	9.12
0.844	9.31
0.856	9.38
0.868	9.56
0.88	9.81
0.892	9.88
0.904	9.94
0.916	10.02
0.928	10.24
0.94	10.36
0.952	10.38
0.964	10.43
0.976	10.65
0.988	10.62
1	10.73
1.012	10.78
1.024	10.79
1.036	10.87
1.048	10.98
1.06	11
1.072	11.05
1.084	11.11
1.096	11.22
1.108	11.27
1.12	11.29
1.132	11.29
1.144	11.37
1.156	11.52
1.168	11.41
1.18	11.42
1.192	11.57
1.204	11.62
1.216	11.57
1.228	11.63
1.24	11.74
1.252	11.8
1.264	11.85
1.276	11.93
1.288	11.88
1.3	11.93
1.312	11.88
1.324	12.03
1.336	12.04
1.348	12.11
1.36	12.13
1.372	12.16
1.384	12.1
1.396	12.15
1.408	12.19
1.42	12.25
1.432	12.37
1.444	12.4
1.456	12.39
1.468	12.35
1.48	12.41
1.492	12.5
1.504	12.4
1.516	12.48
1.528	12.44
1.54	12.51
1.552	12.59
1.564	12.63
1.576	12.59
1.588	12.54
1.6	12.61
1.612	12.74
1.624	12.66
1.636	12.68
1.648	12.69
1.66	12.71
1.672	12.76
1.684	12.79
1.696	12.79
1.708	12.78
1.72	12.89
1.732	12.78
1.744	12.89
1.756	12.83
1.768	12.89
1.78	12.85
1.792	12.9
1.804	12.95
1.816	12.85
1.828	12.95
1.84	12.95
1.852	12.92
1.864	12.94
1.876	13.01
1.888	12.93
1.9	12.94
1.912	12.98
1.924	13.01
1.936	13.06
1.948	12.99
1.96	13.05
1.972	13.06
1.984	13.04
1.996	13.1
2.008	13.14
2.02	13.14
2.032	13.23
2.044	13.24
2.056	13.24
2.068	13.22
2.08	13.29
2.092	13.29
2.104	13.31
2.116	13.37
2.128	13.34
2.14	13.25
2.152	13.33
2.164	13.26
2.176	13.33
2.188	13.29
2.2	13.29
2.212	13.3
2.224	13.41
2.236	13.39
2.248	13.36
2.26	13.39
2.272	13.35
2.284	13.34
2.296	13.37
2.308	13.44
2.32	13.5
2.332	13.46
2.344	13.53
2.356	13.5
2.368	13.51
2.38	13.56
2.392	13.57
2.404	13.59
2.416	13.61
2.428	13.63
2.44	13.55
2.452	13.57
2.464	13.6
2.476	13.56
2.488	13.62
2.5	13.71
