Name: Stilbite NaCa_2Al_5Si_3O_36.14H_2O
Type: Mineral
Class: Silicates
Subclass: Tectosilicates
Particle Size: 125-500um
Sample No.: TS-9A
Owner: JPL
Wavelength Range: VNIR-SWIR
Origin: India
Measurement: Hemispherical reflectance
X Units: Wavelength (micrometers)
Y Units: Reflectance (percent)
wavelength	value
0.4	69.83
0.403	70.11
0.406	70.46
0.409	70.47
0.412	70.76
0.415	71.09
0.418	71.33
0.421	71.6
0.424	71.85
0.427	72.01
0.43	72.31
0.433	72.64
0.436	72.8
0.439	73.09
0.442	73.45
0.445	73.57
0.448	73.89
0.451	74.04
0.454	74.11
0.457	74.57
0.46	74.69
0.463	74.87
0.466	74.95
0.469	75
0.472	75.43
0.475	75.68
0.478	75.63
0.481	75.74
0.484	75.99
0.487	76.12
0.49	76.28
0.493	76.41
0.496	76.44
0.499	76.78
0.502	76.9
0.505	76.96
0.508	77.18
0.511	77.27
0.514	77.4
0.517	77.57
0.52	77.73
0.523	77.77
0.526	78.13
0.529	78.31
0.532	78.16
0.535	78.43
0.538	78.55
0.541	78.73
0.544	78.87
0.547	79.27
0.55	79.42
0.553	79.79
0.556	80.01
0.559	79.97
0.562	80.76
0.565	81.01
0.568	80.96
0.571	80.97
0.574	81.04
0.577	81.04
0.58	81.26
0.583	81.25
0.586	81.29
0.589	81.61
0.592	81.64
0.595	81.7
0.598	81.91
0.601	81.86
0.604	81.96
0.607	82.1
0.61	82.15
0.613	81.95
0.616	82.06
0.619	82.08
0.622	82.13
0.625	82.21
0.628	82.2
0.631	82.09
0.634	82.34
0.637	82.3
0.64	82.27
0.643	82.32
0.646	82.29
0.649	82.27
0.652	82.37
0.655	82.21
0.658	82.21
0.661	82.49
0.664	82.48
0.667	82.4
0.67	82.58
0.673	82.48
0.676	82.55
0.679	82.63
0.682	82.6
0.685	82.53
0.688	82.77
0.691	82.74
0.694	82.64
0.697	82.68
0.7	82.64
0.703	82.65
0.706	82.63
0.709	82.73
0.712	82.63
0.715	82.53
0.718	82.67
0.721	82.52
0.724	82.45
0.727	82.46
0.73	82.4
0.733	82.34
0.736	82.14
0.739	82.05
0.742	82.06
0.745	82.05
0.748	81.96
0.751	82.08
0.754	82.05
0.757	82.13
0.76	82.16
0.763	82.19
0.766	82.34
0.769	82.44
0.772	82.31
0.775	82.56
0.778	82.56
0.781	82.49
0.784	82.51
0.787	82.69
0.79	82.55
0.793	82.64
0.796	82.72
0.799	82.72
0.808	82.49
0.82	82.37
0.832	82.17
0.844	81.86
0.856	82.17
0.868	82.31
0.88	82.31
0.892	82.31
0.904	81.95
0.916	81.47
0.928	80.37
0.94	78.46
0.952	74.75
0.964	70.91
0.976	71.69
0.988	74.43
1	76.78
1.012	79.07
1.024	80.48
1.036	81.28
1.048	81.92
1.06	82.15
1.072	82.09
1.084	81.65
1.096	80.91
1.108	80.14
1.12	78.68
1.132	75.63
1.144	67.47
1.156	60.12
1.168	62.35
1.18	65.82
1.192	67.08
1.204	68.59
1.216	69.78
1.228	70.57
1.24	71.12
1.252	71.49
1.264	71.39
1.276	70.88
1.288	69.88
1.3	67.52
1.312	64.09
1.324	59.8
1.336	56.05
1.348	52.18
1.36	47.89
1.372	43.09
1.384	35.6
1.396	25.74
1.408	16.97
1.42	14.53
1.432	16.58
1.444	20.14
1.456	22.33
1.468	23.29
1.48	27.5
1.492	31.67
1.504	34.93
1.516	37.12
1.528	38.74
1.54	39.87
1.552	40.51
1.564	41
1.576	41.37
1.588	41.71
1.6	41.98
1.612	42.34
1.624	42.88
1.636	43.37
1.648	43.79
1.66	44.35
1.672	44.6
1.684	44.53
1.696	44.08
1.708	42.65
1.72	40.67
1.732	38.43
1.744	36.94
1.756	36.17
1.768	35.63
1.78	35.1
1.792	34.55
1.804	34.04
1.816	33.31
1.828	32.23
1.84	30.49
1.852	27.39
1.864	22.5
1.876	15.59
1.888	9.09
1.9	4.46
1.912	2.86
1.924	3.2
1.936	4.19
1.948	5.16
1.96	6.08
1.972	7.07
1.984	8.16
1.996	9.55
2.008	11.4
2.02	13.31
2.032	15
2.044	16.47
2.056	17.58
2.068	18.16
2.08	18.78
2.092	19.4
2.104	20.01
2.116	20.68
2.128	21.12
2.14	21.61
2.152	21.9
2.164	22.08
2.176	22.18
2.188	22.17
2.2	22.05
2.212	22.07
2.224	21.91
2.236	21.5
2.248	21.12
2.26	20.41
2.272	19.55
2.284	18.66
2.296	17.32
2.308	15.69
2.32	14.21
2.332	12.77
2.344	11.05
2.356	9.23
2.368	7.6
2.38	6.12
2.392	4.91
2.404	4.07
2.416	3.47
2.428	2.97
2.44	2.74
2.452	2.59
2.464	2.35
2.476	2.26
2.488	2.2
2.5	2.04
