Name: Pyrophyllite Al_2Si_4O_10(OH)_2
Type: Mineral
Class: Silicates
Subclass: Phyllosilicates
Particle Size: 0-45um
Sample No.: PS-7A
Owner: JPL
Origin: USA, California
Measurement: Hemispherical reflectance
X Units: Wavelength (micrometers)
Y Units: Reflectance (percent)
wavelength	value
15.3853	2.37591
15.1161	2.10884
14.8563	2.19107
14.6052	2.50082
14.3624	3.09478
14.1276	3.97618
13.9004	5.37396
13.6803	5.69021
13.4671	5.56276
13.2604	7.6253
13.06	9.00763
12.8656	9.93438
12.6769	10.0392
12.4936	9.0838
12.3155	4.74826
12.1425	6.9963
11.9742	3.60925
11.8106	5.61429
11.6513	4.84245
11.4963	8.51317
11.3454	10.1011
11.1983	10.2942
11.0551	8.58092
10.9154	8.2772
10.7793	7.62613
10.6465	6.12163
10.5169	5.01598
10.3904	4.908
10.267	5.32588
10.1464	6.26394
10.0287	6.62179
9.91364	6.60241
9.80119	6.18432
9.69128	6.08426
9.5838	6.27736
9.47867	7.75143
9.37583	9.24732
9.27519	11.4148
9.17669	12.584
9.08027	12.3925
8.98585	6.66766
8.89337	10.3952
8.80277	12.6427
8.714	13.3363
8.62701	13.2002
8.54174	12.7462
8.45813	12.3577
8.37614	11.5507
8.29573	10.464
8.21685	8.59861
8.13946	6.9307
8.0635	5.2708
7.98896	3.98231
7.91578	2.79997
7.84392	2.16784
7.77337	2.0623
7.70406	2.00898
7.63598	2.23282
7.5691	2.75727
7.50338	3.72456
7.43879	4.88148
7.37529	5.8893
7.31288	7.00223
7.25152	7.8996
7.19117	9.14551
7.13182	10.1758
7.07344	11.3314
7.01601	12.7605
6.95951	13.3942
6.90391	13.8851
6.84918	14.5697
6.79532	15.6939
6.74231	17.3016
6.69011	19.2708
6.63871	20.7919
6.5881	20.6981
6.53825	20.9205
6.48915	22.4179
6.44079	22.6141
6.39314	22.8271
6.34618	23.1949
6.29992	23.7675
6.25432	24.0043
6.20938	23.7488
6.16508	23.2998
6.12141	24.3118
6.07835	25.2574
6.0359	26.9968
5.99403	27.7644
5.95274	26.6324
5.91201	26.0547
5.87184	26.7421
5.83221	25.1776
5.79311	22.1061
5.75453	21.5784
5.71646	21.8916
5.6789	22.8736
5.64182	23.3981
5.60522	23.1832
5.5691	22.8012
5.53344	23.0881
5.49823	23.2085
5.46347	22.8691
5.42914	22.463
5.39525	21.0009
5.36177	17.5973
5.32871	14.3966
5.29605	13.7912
5.26379	17.5159
5.23192	21.434
5.20044	23.4287
5.16933	25.5419
5.13859	27.8512
5.10821	27.4458
5.07819	27.2208
5.04852	27.1733
5.0192	28.7323
4.99021	30.2548
4.96156	34.9766
4.93324	39.7431
4.90524	43.5454
4.87755	47.6891
4.85017	51.0074
4.8231	51.9566
4.79633	52.8585
4.76986	53.2303
4.74367	54.3384
4.71777	54.9261
4.69216	55.6324
4.66682	56.8626
4.64175	58.351
4.61695	59.1332
4.59241	59.4259
4.56814	58.8099
4.54411	59.1271
4.52034	59.3495
4.49682	59.8316
4.47354	60.3493
4.4505	61.8069
4.4277	63.0426
4.40513	63.2575
4.38278	63.5647
4.36067	63.9839
4.33877	64.1876
4.3171	64.3681
4.29564	64.2181
4.27439	64.6094
4.25335	65.2182
4.23252	65.576
4.21189	65.9463
4.19146	65.9985
4.17123	66.0886
4.15119	66.0033
4.13134	66.0443
4.11168	66.1201
4.09221	66.2705
4.07292	66.2301
4.05382	66.4541
4.03489	66.6029
4.01614	66.7059
3.99756	66.7797
3.97915	66.7708
3.96091	66.797
3.94284	66.8394
3.92493	66.8738
3.90718	66.7904
3.8896	66.7382
3.87217	66.7084
3.8549	66.5547
3.83777	66.4475
3.82081	66.1749
3.80399	65.9111
3.78731	65.5486
3.77079	65.3423
3.7544	65.0281
3.73816	64.6292
3.72206	64.1776
3.7061	63.5645
3.69027	60.819
3.67458	60.9771
3.65902	61.3633
3.64359	61.9372
3.6283	61.8924
3.61312	61.5479
3.59808	60.9773
3.58316	60.3606
3.56836	59.927
3.55369	59.5503
3.53914	58.9225
3.5247	58.1558
3.51038	56.5007
3.49618	55.7109
3.48209	55.7405
3.46812	55.531
3.45425	54.8244
3.4405	53.9104
3.42686	51.842
3.41332	51.1599
3.39989	51.9411
3.38657	51.7207
3.37335	51.2602
3.36023	51.7662
3.34721	51.6335
3.3343	51.3955
3.32148	51.0128
3.30876	50.5204
3.29614	50.0261
3.28362	49.5529
3.27119	49.2547
3.25885	48.7806
3.24661	48.3843
3.23446	48.0077
3.22239	47.6321
3.21042	47.2395
3.19854	46.8351
3.18674	46.3893
3.17504	45.9333
3.16341	45.6028
3.15187	45.3619
3.14042	44.9561
3.12905	44.7921
3.11776	44.4987
3.10655	44.0654
3.09542	43.8839
3.08437	43.6547
3.0734	43.4639
3.06251	43.1973
3.0517	43.1193
3.04096	42.9423
3.03029	42.5134
3.0197	42.3106
3.00919	41.6
2.99875	41.2001
2.98838	40.7307
2.97808	40.1858
2.96785	40.1683
2.95769	40.4496
2.9476	40.4628
2.93758	40.1492
2.92763	39.637
2.91775	39.4809
2.90793	40.0433
2.89817	39.847
2.88849	39.1951
2.87886	39.5262
2.8693	38.0378
2.85981	38.6493
2.85038	39.295
2.841	39.8187
2.83169	41.0205
2.82245	41.3687
2.81326	40.9035
2.80413	41.1469
2.79506	40.9342
2.78605	39.3144
2.77709	39.1444
2.7682	35.0237
2.75936	29.1507
2.75057	29.4474
2.74185	17.193
2.73318	14.1264
2.72456	4.95861
2.71599	3.78109
2.70748	13.491
2.69903	25.1726
2.69062	38.4308
2.68227	47.5404
2.67397	52.4892
2.66572	58.4423
2.65753	60.1548
2.64938	62.1906
2.64128	62.2147
2.63323	63.0403
2.62523	62.887
2.61728	61.0701
2.60938	55.768
2.60152	56.4154
2.59371	60.1866
2.58595	62.9484
2.57824	65.5129
2.57057	64.065
2.56294	66.5367
2.55536	66.1293
2.54783	64.4365
2.54034	67.1434
2.53289	67.6908
2.52549	66.4163
2.51813	64.1253
2.51082	62.4032
2.50354	62.839
2.49631	63.9691
2.48912	64.6435
2.48197	65.4822
2.47486	68.0734
2.46779	68.461
2.46077	68.8067
2.45378	68.5808
2.44683	68.8765
2.43992	69.113
2.43305	68.2133
2.42622	68.8032
2.41943	69.8178
2.41267	70.1547
2.40595	69.684
2.39928	69.7646
2.39263	69.1191
2.38603	70.0394
2.37946	72.083
2.37292	73.7448
2.36642	73.023
2.35996	72.3397
2.35353	72.2413
2.34714	71.6471
2.34078	73.3601
2.33446	73.47
2.32817	71.1371
2.32191	68.0871
2.31569	68.8212
2.3095	71.2364
2.30335	72.811
2.29722	73.8775
2.29113	74.45
2.28507	75.473
2.27905	77.0366
2.27305	78.5594
2.26709	79.433
2.26116	80.0217
2.25526	80.4609
2.24939	81.0435
2.24355	81.3333
2.23774	81.859
2.23196	82.0136
2.22621	81.1846
2.22049	79.9667
2.21479	79.9411
2.20913	78.4473
2.2035	79.7455
2.19789	80.2157
2.19232	80.0419
2.18677	78.8321
2.18125	75.7382
2.17576	68.3621
2.17029	56.7822
2.16486	54.5905
2.15945	67.0362
2.15406	73.7092
2.14871	78.5543
2.14338	81.093
2.13808	81.9635
2.1328	82.8626
2.12755	83.5469
2.12232	84.5831
2.11712	85.2967
2.11195	86.1704
2.1068	86.4764
2.10168	86.4596
2.09658	86.5382
2.0915	86.1285
2.08645	85.2784
2.08143	84.6648
2.07643	85.2804
2.07145	85.4773
2.06649	85.4495
2.06156	85.4261
2.05666	86.582
2.05177	87.0744
2.04691	87.3526
2.04208	87.4352
2.03726	87.6278
2.03247	87.5225
2.0277	87.8776
2.02295	87.5392
2.01823	87.4545
2.01353	87.4374
2.00885	87.4959
2.00419	87.8016
