Name: Riebeckite Na_2(Fe^2+,Mg)_3,Fe_2^3+Si_8O_22(OH)_2
Type: Mineral
Class: Silicates
Subclass: Inosilicates
Particle Size: 125-500um
Sample No.: IN-7A
Owner: JPL
Wavelength Range: VNIR-SWIR
Origin: Canada, Ontario
Measurement: Hemispherical reflectance
X Units: Wavelength (micrometers)
Y Units: Reflectance (percent)
wavelength	value
0.4	2.89
0.403	2.8
0.406	2.73
0.409	2.91
0.412	2.86
0.415	2.86
0.418	2.85
0.421	2.74
0.424	2.73
0.427	2.79
0.43	2.86
0.433	2.73
0.436	2.8
0.439	2.73
0.442	2.72
0.445	2.72
0.448	2.73
0.451	2.73
0.454	2.66
0.457	2.58
0.46	2.7
0.463	2.73
0.466	2.61
0.469	2.66
0.472	2.6
0.475	2.67
0.478	2.72
0.481	2.66
0.484	2.6
0.487	2.59
0.49	2.64
0.493	2.64
0.496	2.62
0.499	2.68
0.502	2.55
0.505	2.61
0.508	2.61
0.511	2.72
0.514	2.6
0.517	2.6
0.52	2.49
0.523	2.53
0.526	2.58
0.529	2.58
0.532	2.6
0.535	2.48
0.538	2.42
0.541	2.43
0.544	2.48
0.547	2.47
0.55	2.46
0.553	2.49
0.556	2.43
0.559	2.47
0.562	2.53
0.565	2.48
0.568	2.49
0.571	2.48
0.574	2.51
0.577	2.43
0.58	2.45
0.583	2.33
0.586	2.44
0.589	2.32
0.592	2.44
0.595	2.38
0.598	2.43
0.601	2.33
0.604	2.37
0.607	2.37
0.61	2.35
0.613	2.35
0.616	2.29
0.619	2.3
0.622	2.41
0.625	2.36
0.628	2.35
0.631	2.36
0.634	2.29
0.637	2.36
0.64	2.24
0.643	2.42
0.646	2.35
0.649	2.41
0.652	2.35
0.655	2.36
0.658	2.36
0.661	2.35
0.664	2.29
0.667	2.36
0.67	2.3
0.673	2.41
0.676	2.3
0.679	2.41
0.682	2.3
0.685	2.41
0.688	2.35
0.691	2.35
0.694	2.3
0.697	2.41
0.7	2.28
0.703	2.35
0.706	2.41
0.709	2.35
0.712	2.3
0.715	2.35
0.718	2.36
0.721	2.35
0.724	2.29
0.727	2.41
0.73	2.29
0.733	2.36
0.736	2.35
0.739	2.4
0.742	2.47
0.745	2.34
0.748	2.34
0.751	2.46
0.754	2.46
0.757	2.4
0.76	2.46
0.763	2.34
0.766	2.34
0.769	2.51
0.772	2.61
0.775	2.5
0.778	2.56
0.781	2.45
0.784	2.5
0.787	2.5
0.79	2.56
0.793	2.56
0.796	2.51
0.799	2.47
0.808	2.93
0.82	2.88
0.832	2.88
0.844	2.82
0.856	2.9
0.868	2.9
0.88	2.84
0.892	2.78
0.904	2.84
0.916	2.85
0.928	2.9
0.94	2.91
0.952	2.91
0.964	2.9
0.976	2.84
0.988	2.96
1	3
1.012	2.95
1.024	2.91
1.036	3.08
1.048	3.02
1.06	3.01
1.072	3.12
1.084	3.13
1.096	3.06
1.108	3.11
1.12	3.2
1.132	3.16
1.144	3.19
1.156	3.25
1.168	3.25
1.18	3.31
1.192	3.37
1.204	3.54
1.216	3.49
1.228	3.64
1.24	3.77
1.252	3.87
1.264	3.93
1.276	4.16
1.288	4.16
1.3	4.41
1.312	4.6
1.324	4.72
1.336	4.93
1.348	5.15
1.36	5.43
1.372	5.56
1.384	5.82
1.396	5.92
1.408	6.45
1.42	6.88
1.432	7.14
1.444	7.58
1.456	7.97
1.468	8.29
1.48	8.77
1.492	9.16
1.504	9.66
1.516	10.1
1.528	10.51
1.54	11.06
1.552	11.52
1.564	11.98
1.576	12.5
1.588	13.11
1.6	13.68
1.612	14.23
1.624	14.71
1.636	15.37
1.648	15.98
1.66	16.47
1.672	17.05
1.684	17.76
1.696	18.34
1.708	18.89
1.72	19.45
1.732	20.13
1.744	20.69
1.756	21.24
1.768	21.88
1.78	22.48
1.792	23.05
1.804	23.58
1.816	24.15
1.828	24.7
1.84	25.24
1.852	25.86
1.864	26.3
1.876	26.77
1.888	27.12
1.9	27.63
1.912	28.07
1.924	28.55
1.936	29.03
1.948	29.6
1.96	30
1.972	30.42
1.984	30.99
1.996	31.38
2.008	31.68
2.02	32.15
2.032	32.46
2.044	32.7
2.056	33.06
2.068	33.24
2.08	33.45
2.092	33.53
2.104	33.59
2.116	33.81
2.128	34.11
2.14	34.4
2.152	34.83
2.164	35.14
2.176	35.5
2.188	35.69
2.2	35.89
2.212	35.95
2.224	36.09
2.236	36.1
2.248	36.14
2.26	35.92
2.272	35.37
2.284	34.09
2.296	31.32
2.308	28.15
2.32	26.32
2.332	26.72
2.344	28.67
2.356	30.18
2.368	29.8
2.38	28.45
2.392	28.21
2.404	29.69
2.416	31.75
2.428	33.16
2.44	33.87
2.452	34.06
2.464	34.1
2.476	34.11
2.488	34.2
2.5	34.6
