Name: Johannsenite Ca(Mn,Fe^2+)(SiO_3)_2
Type: Mineral
Class: Silicates
Subclass: Inosilicates
Particle Size: 0-45um
Sample No.: IN-12A
Owner: JPL
Origin: USA, Arizona, Graham County, Aravaipa.
Measurement: Hemispherical reflectance
X Units: Wavelength (micrometers)
Y Units: Reflectance (percent)
wavelength	value
2.5	49.0066
2.494	48.9043
2.488	49.1462
2.482	49.2961
2.476	49.5149
2.47	49.7671
2.464	50.1831
2.458	50.4807
2.452	50.5902
2.446	50.975
2.44	51.0681
2.434	51.3965
2.428	51.6748
2.422	51.8479
2.416	51.9685
2.41	52.1368
2.404	52.3828
2.398	52.5468
2.392	52.6681
2.386	53.0084
2.38	53.1238
2.374	53.4143
2.368	53.5357
2.362	53.7347
2.356	53.8398
2.35	53.877
2.344	53.9133
2.338	53.8813
2.332	53.8127
2.326	53.7079
2.32	53.527
2.314	53.2964
2.308	53.1399
2.302	52.8916
2.296	52.6993
2.29	52.6309
2.284	52.7675
2.278	52.9147
2.272	53.0683
2.266	53.1563
2.26	53.1382
2.254	53.2137
2.248	53.2806
2.242	53.1712
2.236	53.2249
2.23	53.2433
2.224	53.2
2.218	53.1635
2.212	53.2638
2.206	53.2988
2.2	53.3796
2.194	53.382
2.188	53.3029
2.182	53.2874
2.176	53.2642
2.17	53.2783
2.164	53.3463
2.158	53.236
2.152	53.2102
2.146	53.1492
2.14	53.0096
2.134	52.7995
2.128	52.5046
2.122	52.1943
2.116	51.9715
2.11	51.6268
2.104	51.2998
2.098	51.083
2.092	50.9775
2.086	50.8235
2.08	50.7231
2.074	50.6139
2.068	50.5057
2.062	50.3089
2.056	50.1733
2.05	50.03
2.044	49.825
2.038	49.6189
2.032	49.452
2.026	49.2191
2.02	48.957
2.014	48.6266
2.008	48.3657
2.002	48.164
1.996	47.8578
1.99	47.5187
1.984	47.2261
1.978	46.8903
1.972	46.568
1.966	46.2586
1.96	45.9791
1.954	45.647
1.948	45.3682
1.942	45.0928
1.936	44.8064
1.93	44.5707
1.924	44.328
1.918	44.0774
1.912	43.9787
1.906	44.1742
1.9	45.0659
1.894	46.013
1.888	46.6745
1.882	46.974
1.876	47.0035
1.87	47.1325
1.864	47.1639
1.858	47.0627
1.852	46.9368
1.846	46.8458
1.84	46.6685
1.834	46.5604
1.828	46.4378
1.822	46.2171
1.816	46.1343
1.81	45.9527
1.804	45.7601
1.798	45.5581
1.792	45.4465
1.786	45.2177
1.78	45.0368
1.774	44.9236
1.768	44.7051
1.762	44.5187
1.756	44.3875
1.75	44.2103
1.744	44.0849
1.738	43.8723
1.732	43.7747
1.726	43.5796
1.72	43.3424
1.714	43.146
1.708	42.9278
1.702	42.7688
1.696	42.6212
1.69	42.4178
1.684	42.2252
1.678	42.1044
1.672	41.9107
1.666	41.6893
1.66	41.4868
1.654	41.4185
1.648	41.1105
1.642	40.9883
1.636	40.8148
1.63	40.5874
1.624	40.4235
1.618	40.1779
1.612	40.0101
1.606	39.8206
1.6	39.613
1.594	39.414
1.588	39.2405
1.582	38.9756
1.576	38.864
1.57	38.6139
1.564	38.4089
1.558	38.1986
1.552	37.9766
1.546	37.7815
1.54	37.5429
1.534	37.332
1.528	37.1637
1.522	36.8946
1.516	36.7073
1.51	36.4521
1.504	36.2307
1.498	35.9932
1.492	35.855
1.486	35.6123
1.48	35.3509
1.474	35.0811
1.468	34.8795
1.462	34.6494
1.456	34.4112
1.45	34.1747
1.444	33.8961
1.438	33.7266
1.432	33.5026
1.426	33.2495
1.42	33.0103
1.414	32.8104
1.408	32.6802
1.402	32.5598
1.396	32.4053
1.39	32.2355
1.384	32.0416
1.378	31.8604
1.372	31.598
1.366	31.4249
1.36	31.1954
1.354	31.0554
1.348	30.6787
1.342	30.3935
1.336	30.1198
1.33	29.9287
1.324	29.6836
1.318	29.5202
1.312	29.2203
1.306	28.9683
1.3	28.7172
1.294	28.486
1.288	28.2446
1.282	27.9641
1.276	27.7374
1.27	27.4996
1.264	27.2835
1.258	27.0697
1.252	26.8465
1.246	26.6452
1.24	26.465
1.234	26.2113
1.228	26.0186
1.222	25.8442
1.216	25.6855
1.21	25.4532
1.204	25.3416
1.198	25.1307
1.192	24.927
1.186	24.8427
1.18	24.6351
1.174	24.4894
1.168	24.3829
1.162	24.2111
1.156	24.1056
1.15	23.9572
1.144	23.8444
1.138	23.6472
1.132	23.4984
1.126	23.366
1.12	23.3026
1.114	23.1493
1.108	23.0114
1.102	22.9011
1.096	22.798
1.09	22.6315
1.084	22.4934
1.078	22.316
1.072	22.2112
1.066	22.1459
1.06	21.9692
1.054	21.7251
1.048	21.624
1.042	21.5034
1.036	21.3167
1.03	21.1654
1.024	21.0073
1.018	20.8564
1.012	20.7085
1.006	20.5837
1	20.4569
0.994	20.2476
0.988	20.1423
0.982	19.9796
0.976	19.9084
0.97	19.7289
0.964	19.6825
0.958	19.4917
0.952	19.3907
0.946	19.2824
0.94	19.2195
0.934	19.2026
0.928	19.0052
0.922	18.8894
0.916	18.8454
0.91	18.7406
0.904	18.6551
0.898	18.4685
0.892	18.3947
0.886	18.2377
0.88	18.1471
0.874	17.9893
0.868	17.7615
0.862	17.6511
0.856	17.8421
0.85	17.7131
0.844	17.5561
0.838	17.3912
0.832	17.2394
0.826	17.1043
0.82	16.9479
0.814	16.8037
0.808	16.653
0.802	16.5072
0.796	16.3726
0.79	16.2352
0.784	16.1009
0.778	15.9664
0.772	15.823
0.766	15.7032
0.76	15.582
0.754	15.4615
0.748	15.3166
0.742	15.2025
0.736	15.0805
0.73	14.964
0.724	14.8374
0.718	14.7328
0.712	14.635
0.706	14.54
0.7	14.4409
0.694	14.342
0.688	14.2334
0.682	14.1093
0.676	13.976
0.67	13.8175
0.664	13.6475
0.658	13.4623
0.652	13.2723
0.646	13.077
0.64	12.8801
0.634	12.6772
0.628	12.4867
0.622	12.2913
0.616	12.0962
0.61	11.9009
0.604	11.7037
0.598	11.5063
0.592	11.3059
0.586	11.0957
0.58	10.8736
0.574	10.6344
0.568	10.3841
0.562	10.1087
0.556	9.85165
0.55	9.56705
0.544	9.27823
0.538	8.98046
0.532	8.68473
0.526	8.4075
0.52	8.11786
0.514	7.84556
0.508	7.58899
0.502	7.349
0.496	7.12056
0.49	6.902
0.484	6.70203
0.478	6.4687
0.472	6.25769
0.466	6.05879
0.46	5.87979
0.454	5.70876
0.448	5.56132
0.442	5.40945
0.436	5.25133
0.43	5.09817
0.424	4.94361
0.418	4.80883
0.412	4.685
0.406	4.58148
0.4	4.47948
