Name: Colemanite Ca_2B_6O_11.5H_2O
Type: Mineral
Class: Borates
Particle Size: <45um
Sample No.: B-1A
Owner: JPL
Origin: USA, California, Kern County, Boron.
Measurement: Hemispherical reflectance
X Units: Wavelength (micrometers)
Y Units: Reflectance (percent)
wavelength	value
2.5	34.7303
2.494	34.6915
2.488	34.7328
2.482	35.0168
2.476	34.7283
2.47	34.7213
2.464	34.7601
2.458	34.7644
2.452	34.8208
2.446	35.0509
2.44	35.3898
2.434	35.793
2.428	36.1297
2.422	36.5715
2.416	36.9885
2.41	37.49
2.404	38.3835
2.398	39.4926
2.392	40.6195
2.386	41.7862
2.38	43.0854
2.374	44.355
2.368	45.5519
2.362	46.6201
2.356	47.6944
2.35	48.7207
2.344	49.4158
2.338	50.0665
2.332	50.5865
2.326	51.0799
2.32	51.5102
2.314	51.9758
2.308	52.0753
2.302	52.1873
2.296	52.1816
2.29	52.2019
2.284	51.9817
2.278	51.7511
2.272	51.3776
2.266	50.996
2.26	50.7171
2.254	50.2708
2.248	49.5919
2.242	48.8658
2.236	47.9483
2.23	47.2429
2.224	46.5762
2.218	45.7527
2.212	44.8789
2.206	44.0687
2.2	44.0821
2.194	44.5521
2.188	45.2166
2.182	45.8064
2.176	46.2521
2.17	46.5453
2.164	47.0928
2.158	47.8666
2.152	48.7529
2.146	49.5525
2.14	49.6828
2.134	48.7911
2.128	47.1857
2.122	44.8998
2.116	42.4711
2.11	40.8124
2.104	40.7616
2.098	42.6593
2.092	46.5355
2.086	50.2592
2.08	52.4066
2.074	53.2955
2.068	53.6531
2.062	53.8435
2.056	53.9783
2.05	54.0648
2.044	54.0607
2.038	53.9354
2.032	53.7498
2.026	53.6024
2.02	53.3822
2.014	53.1567
2.008	52.8238
2.002	52.5503
1.996	52.236
1.99	51.9808
1.984	51.6938
1.978	51.2992
1.972	50.9545
1.966	50.728
1.96	50.5477
1.954	50.8503
1.948	51.5898
1.942	52.8898
1.936	54.5159
1.93	56.2656
1.924	57.9698
1.918	59.5191
1.912	60.9014
1.906	62.1367
1.9	63.2625
1.894	64.1304
1.888	64.8019
1.882	65.4306
1.876	65.8983
1.87	66.3101
1.864	66.6487
1.858	66.97
1.852	67.0515
1.846	67.1375
1.84	67.1977
1.834	67.1189
1.828	67.0884
1.822	66.9984
1.816	66.9958
1.81	67.0613
1.804	67.1495
1.798	67.064
1.792	67.1486
1.786	67.0697
1.78	67.0564
1.774	67.0299
1.768	67.0559
1.762	67.1449
1.756	67.2769
1.75	67.4709
1.744	67.5732
1.738	67.6303
1.732	67.6545
1.726	67.6312
1.72	67.5031
1.714	67.3305
1.708	67.0986
1.702	66.8165
1.696	66.5812
1.69	66.4791
1.684	66.3443
1.678	66.2249
1.672	66.1949
1.666	66.1657
1.66	66.1695
1.654	66.3942
1.648	66.6703
1.642	67.0729
1.636	67.4582
1.63	67.9757
1.624	68.6789
1.618	69.2645
1.612	69.8434
1.606	70.4795
1.6	70.9322
1.594	71.1912
1.588	71.4986
1.582	71.4686
1.576	71.3469
1.57	71.1958
1.564	71.1148
1.558	71.1302
1.552	71.272
1.546	71.6928
1.54	72.2077
1.534	72.901
1.528	73.4947
1.522	74.049
1.516	74.5466
1.51	75.0323
1.504	75.4541
1.498	75.7008
1.492	76.056
1.486	76.2083
1.48	76.295
1.474	76.0591
1.468	75.6085
1.462	75.0087
1.456	74.2555
1.45	73.7016
1.444	73.546
1.438	73.8197
1.432	72.002
1.426	65.333
1.42	63.6069
1.414	68.5339
1.408	74.1191
1.402	78.0345
1.396	81.0765
1.39	82.7964
1.384	84.0914
1.378	85.1545
1.372	85.8676
1.366	86.2917
1.36	86.6575
1.354	87.0855
1.348	87.269
1.342	87.3128
1.336	87.4126
1.33	87.7858
1.324	88.0978
1.318	88.469
1.312	88.7803
1.306	89.1515
1.3	89.3101
1.294	89.5023
1.288	89.6832
1.282	89.8118
1.276	89.8497
1.27	89.9828
1.264	90.067
1.258	90.1087
1.252	90.0773
1.246	90.0872
1.24	90.0491
1.234	90.0179
1.228	89.9944
1.222	90.0623
1.216	90.4512
1.21	90.5612
1.204	90.6795
1.198	90.7167
1.192	90.7155
1.186	90.6555
1.18	90.7436
1.174	90.9479
1.168	91.2328
1.162	91.4638
1.156	91.5988
1.15	91.8374
1.144	92.0468
1.138	92.1556
1.132	92.3443
1.126	92.3484
1.12	92.3476
1.114	92.4214
1.108	92.4574
1.102	92.4745
1.096	92.5806
1.09	92.5555
1.084	92.6449
1.078	92.6309
1.072	92.5967
1.066	92.6747
1.06	92.7537
1.054	92.7886
1.048	92.7857
1.042	92.7377
1.036	92.7841
1.03	92.8162
1.024	92.7276
1.018	92.7463
1.012	92.687
1.006	92.5926
1	92.4968
0.994	92.2825
0.988	92.1307
0.982	91.8084
0.976	91.2007
0.97	90.8636
0.964	91.4534
0.958	92.3025
0.952	92.7454
0.946	92.9617
0.94	93.0811
0.934	93.1631
0.928	93.2478
0.922	93.2445
0.916	93.249
0.91	93.3252
0.904	93.3658
0.898	93.3401
0.892	93.3044
0.886	93.3615
0.88	93.3619
0.874	93.3631
0.868	93.3177
0.862	93.2783
0.856	93.2439
0.85	93.2536
0.844	93.366
0.838	93.403
0.832	93.3811
0.826	93.3968
0.82	93.3577
0.814	93.3879
0.808	93.3414
0.802	93.4134
0.796	93.3105
0.79	93.2322
0.784	93.2787
0.778	93.1725
0.772	93.1605
0.766	93.0691
0.76	93.0459
0.754	92.9887
0.748	92.9292
0.742	92.9417
0.736	92.9282
0.73	92.9905
0.724	92.9325
0.718	92.9133
0.712	92.9
0.706	92.8511
0.7	92.8651
0.694	92.8596
0.688	92.8658
0.682	92.8325
0.676	92.8216
0.67	92.7779
0.664	92.784
0.658	92.7058
0.652	92.7003
0.646	92.6539
0.64	92.6196
0.634	92.5794
0.628	92.5265
0.622	92.4864
0.616	92.4487
0.61	92.3977
0.604	92.3492
0.598	92.3533
0.592	92.3498
0.586	92.2907
0.58	92.2304
0.574	92.1257
0.568	92.0782
0.562	91.9777
0.556	91.923
0.55	91.8138
0.544	91.6825
0.538	91.5453
0.532	91.4235
0.526	91.2968
0.52	91.1185
0.514	90.9775
0.508	90.7589
0.502	90.519
0.496	90.3213
0.49	90.1549
0.484	89.9236
0.478	89.6743
0.472	89.4547
0.466	89.2308
0.46	89.0366
0.454	88.8143
0.448	88.6299
0.442	88.4418
0.436	88.2293
0.43	88.0792
0.424	87.8777
0.418	87.7107
0.412	87.5009
0.406	87.3391
0.4	87.0778
