Name: Quartz SiO_2
Type: Mineral
Class: Silicates
Subclass: Tectosilicates
Particle Size: 0-45um
Sample No.: TS-1B
Owner: JPL
Wavelength Range: VNIR-SWIR
Origin: Brazil, Minas Gerais
Description: Smoky quartz.
Measurement: Hemispherical reflectance
X Units: Wavelength (micrometers)
Y Units: Reflectance (percent)
wavelength	value
0.4	71.93
0.403	72.01
0.406	72.12
0.409	72.03
0.412	72.37
0.415	72.07
0.418	72.16
0.421	72.28
0.424	72.2
0.427	72.19
0.43	72.32
0.433	72.28
0.436	72.28
0.439	72.5
0.442	72.53
0.445	72.44
0.448	72.38
0.451	72.56
0.454	72.6
0.457	72.52
0.46	72.57
0.463	72.69
0.466	72.7
0.469	72.85
0.472	72.67
0.475	72.99
0.478	72.82
0.481	72.76
0.484	72.89
0.487	72.96
0.49	72.92
0.493	73.03
0.496	73.12
0.499	73.13
0.502	73.18
0.505	73.24
0.508	73.2
0.511	73.15
0.514	73.54
0.517	73.4
0.52	73.37
0.523	73.55
0.526	73.54
0.529	73.48
0.532	73.56
0.535	73.53
0.538	73.52
0.541	73.83
0.544	73.85
0.547	73.82
0.55	74.02
0.553	73.98
0.556	74.03
0.559	74.1
0.562	74.28
0.565	74.5
0.568	74.37
0.571	74.09
0.574	74.18
0.577	74.25
0.58	74.03
0.583	74.05
0.586	74.3
0.589	74.23
0.592	74.26
0.595	74.24
0.598	74.38
0.601	74.37
0.604	74.51
0.607	74.67
0.61	74.41
0.613	74.44
0.616	74.47
0.619	74.27
0.622	74.37
0.625	74.5
0.628	74.39
0.631	74.42
0.634	74.53
0.637	74.59
0.64	74.54
0.643	74.59
0.646	74.64
0.649	74.53
0.652	74.59
0.655	74.57
0.658	74.59
0.661	74.61
0.664	74.77
0.667	74.73
0.67	74.64
0.673	74.8
0.676	74.94
0.679	74.76
0.682	74.81
0.685	74.95
0.688	74.94
0.691	74.83
0.694	74.92
0.697	75.09
0.7	74.95
0.703	74.94
0.706	74.78
0.709	75.01
0.712	75.05
0.715	75
0.718	75.17
0.721	75.25
0.724	75.02
0.727	75.05
0.73	75.38
0.733	75.3
0.736	75.25
0.739	75.25
0.742	75.32
0.745	75.38
0.748	75.42
0.751	75.33
0.754	75.37
0.757	75.48
0.76	75.37
0.763	75.55
0.766	75.53
0.769	75.51
0.772	75.59
0.775	75.75
0.778	75.58
0.781	75.56
0.784	75.93
0.787	75.85
0.79	75.83
0.793	75.99
0.796	76.14
0.799	75.87
0.808	76.15
0.82	76.37
0.832	76.37
0.844	76.57
0.856	76.54
0.868	76.75
0.88	76.62
0.892	76.73
0.904	76.77
0.916	76.84
0.928	76.93
0.94	77.01
0.952	77.07
0.964	77.15
0.976	77.12
0.988	77.15
1	77.2
1.012	77.13
1.024	77.18
1.036	77.32
1.048	77.29
1.06	77.4
1.072	77.4
1.084	77.32
1.096	77.36
1.108	77.42
1.12	77.41
1.132	77.41
1.144	77.39
1.156	77.43
1.168	77.4
1.18	77.38
1.192	77.36
1.204	77.35
1.216	77.31
1.228	77.26
1.24	77.26
1.252	77.28
1.264	77.35
1.276	77.36
1.288	77.45
1.3	77.41
1.312	77.32
1.324	77.31
1.336	77.18
1.348	77.2
1.36	77.22
1.372	77.2
1.384	77.2
1.396	77.2
1.408	77.35
1.42	77.33
1.432	77.3
1.444	77.46
1.456	77.2
1.468	77.3
1.48	77.31
1.492	77.29
1.504	77.28
1.516	77.36
1.528	77.34
1.54	77.32
1.552	77.36
1.564	77.3
1.576	77.31
1.588	77.33
1.6	77.35
1.612	77.4
1.624	77.29
1.636	77.19
1.648	77.38
1.66	77.4
1.672	77.43
1.684	77.4
1.696	77.46
1.708	77.42
1.72	77.43
1.732	77.47
1.744	77.45
1.756	77.31
1.768	77.37
1.78	77.42
1.792	77.32
1.804	77.39
1.816	77.42
1.828	77.38
1.84	77.4
1.852	77.34
1.864	77.41
1.876	77.35
1.888	77.36
1.9	77.3
1.912	77.28
1.924	77.33
1.936	77.24
1.948	77.39
1.96	77.34
1.972	77.38
1.984	77.51
1.996	77.65
2.008	77.59
2.02	77.74
2.032	77.74
2.044	77.83
2.056	77.91
2.068	77.96
2.08	78.03
2.092	78.09
2.104	78.17
2.116	78.34
2.128	78.36
2.14	78.18
2.152	78.03
2.164	77.83
2.176	77.85
2.188	77.75
2.2	77.68
2.212	77.77
2.224	77.67
2.236	77.74
2.248	77.73
2.26	77.85
2.272	77.86
2.284	77.86
2.296	77.89
2.308	77.94
2.32	78.09
2.332	78.2
2.344	78.26
2.356	78.29
2.368	78.28
2.38	78.29
2.392	78.24
2.404	78.24
2.416	78.27
2.428	78.33
2.44	78.29
2.452	78.19
2.464	78.26
2.476	78.31
2.488	78.77
2.5	79.19
