Name: Hemimorphite Zn_4Si_2O_7(OH)_2.H_2O
Type: Mineral
Class: Silicates
Subclass: Sorosilicate
Particle Size: 45-125um
Sample No.: SS-2A
Owner: JPL
Origin: Mexico, Durango, Ojuela Mine.
Measurement: Hemispherical reflectance
X Units: Wavelength (micrometers)
Y Units: Reflectance (percent)
wavelength	value
2.5	21.794
2.494	22.2596
2.488	23.19
2.482	23.9134
2.476	24.7761
2.47	25.5239
2.464	26.2504
2.458	26.795
2.452	27.305
2.446	27.8723
2.44	28.2905
2.434	28.8727
2.428	29.2602
2.422	29.9103
2.416	30.5458
2.41	31.1008
2.404	31.7964
2.398	32.3957
2.392	33.1097
2.386	33.8823
2.38	34.7004
2.374	35.8374
2.368	37.1086
2.362	38.6082
2.356	40.2846
2.35	42.104
2.344	43.8854
2.338	45.5188
2.332	46.9212
2.326	48.038
2.32	49.0543
2.314	49.9183
2.308	50.5683
2.302	51.0994
2.296	51.5071
2.29	51.7689
2.284	52.0326
2.278	52.0817
2.272	52.1819
2.266	51.992
2.26	51.828
2.254	51.5386
2.248	51.1861
2.242	50.6998
2.236	50.2694
2.23	49.7718
2.224	49.5171
2.218	49.4205
2.212	49.7976
2.206	50.1683
2.2	50.8832
2.194	51.7359
2.188	52.6883
2.182	53.6428
2.176	54.7542
2.17	55.7513
2.164	56.7128
2.158	57.5743
2.152	58.4807
2.146	59.3123
2.14	59.9165
2.134	60.5861
2.128	61.0752
2.122	61.4593
2.116	61.7667
2.11	61.9072
2.104	61.9935
2.098	62.0623
2.092	62.1215
2.086	62.1469
2.08	62.2193
2.074	62.1547
2.068	62.0215
2.062	61.8911
2.056	61.5407
2.05	61.0974
2.044	60.5499
2.038	59.966
2.032	59.1477
2.026	58.1424
2.02	57.0745
2.014	55.8682
2.008	54.3744
2.002	52.7649
1.996	50.8656
1.99	48.8083
1.984	46.8067
1.978	45.1219
1.972	44.0571
1.966	43.4349
1.96	43.2353
1.954	42.8218
1.948	41.7238
1.942	39.6652
1.936	36.4094
1.93	32.1491
1.924	27.5321
1.918	24.7052
1.912	24.8257
1.906	28.5425
1.9	34.8227
1.894	41.0015
1.888	46.5281
1.882	50.9693
1.876	54.2843
1.87	57.1284
1.864	58.8598
1.858	59.757
1.852	60.1333
1.846	60.1387
1.84	60.257
1.834	60.5294
1.828	61.0123
1.822	61.5441
1.816	62.2546
1.81	63.2939
1.804	64.4137
1.798	65.7453
1.792	67.0407
1.786	68.5642
1.78	70.1842
1.774	71.9426
1.768	73.4874
1.762	74.9388
1.756	76.301
1.75	77.4164
1.744	78.5067
1.738	79.3197
1.732	80.0738
1.726	80.8213
1.72	81.3334
1.714	81.8222
1.708	82.2171
1.702	82.5318
1.696	82.8206
1.69	83.0135
1.684	83.1389
1.678	83.0682
1.672	83.1114
1.666	83.0882
1.66	82.9834
1.654	82.927
1.648	82.7366
1.642	82.5506
1.636	82.4368
1.63	82.1626
1.624	81.9397
1.618	81.557
1.612	81.4061
1.606	81.0615
1.6	80.8358
1.594	80.4216
1.588	80.0868
1.582	79.5785
1.576	79.03
1.57	78.689
1.564	78.0713
1.558	77.5415
1.552	76.89
1.546	76.1564
1.54	75.3857
1.534	74.5539
1.528	73.5844
1.522	72.5553
1.516	71.4839
1.51	70.3016
1.504	68.9626
1.498	67.4095
1.492	65.6428
1.486	63.6074
1.48	61.078
1.474	58.4491
1.468	57.0054
1.462	56.6116
1.456	55.5705
1.45	53.576
1.444	50.8614
1.438	47.533
1.432	44.1204
1.426	41.6427
1.42	41.3219
1.414	43.5998
1.408	47.6531
1.402	52.8091
1.396	58.3047
1.39	63.3721
1.384	67.3149
1.378	70.354
1.372	72.4478
1.366	74.1351
1.36	75.713
1.354	77.1743
1.348	78.4556
1.342	79.6846
1.336	80.9217
1.33	81.9086
1.324	82.9056
1.318	83.6901
1.312	84.3604
1.306	85.0376
1.3	85.3934
1.294	85.6985
1.288	85.9597
1.282	85.9592
1.276	85.9939
1.27	86.3324
1.264	86.5247
1.258	86.7023
1.252	86.9559
1.246	86.952
1.24	86.979
1.234	86.9623
1.228	86.8204
1.222	86.7032
1.216	86.52
1.21	86.3678
1.204	85.9675
1.198	85.5808
1.192	85.4983
1.186	85.3535
1.18	84.9837
1.174	84.0703
1.168	82.6789
1.162	82.1296
1.156	83.2625
1.15	84.8247
1.144	86.6977
1.138	87.9192
1.132	88.586
1.126	89.0145
1.12	89.3453
1.114	89.6523
1.108	89.827
1.102	90.0073
1.096	90.225
1.09	90.2772
1.084	90.3473
1.078	90.2866
1.072	90.308
1.066	90.2917
1.06	90.4171
1.054	90.2968
1.048	90.3094
1.042	90.2471
1.036	90.0642
1.03	89.8871
1.024	89.711
1.018	89.3725
1.012	89.0409
1.006	88.5657
1	88.0436
0.994	87.2791
0.988	86.4311
0.982	85.6344
0.976	85.1348
0.97	85.2067
0.964	86.187
0.958	87.2991
0.952	88.0513
0.946	88.8563
0.94	89.4546
0.934	89.8444
0.928	90.2162
0.922	90.3776
0.916	90.4144
0.91	90.4774
0.904	90.4982
0.898	90.5526
0.892	90.6675
0.886	90.6969
0.88	90.6994
0.874	90.714
0.868	90.7389
0.862	90.6279
0.856	90.8301
0.85	90.6973
0.844	90.6645
0.838	90.7687
0.832	90.9141
0.826	90.9953
0.82	91.0039
0.814	91.0558
0.808	91.0846
0.802	91.0436
0.796	90.9361
0.79	90.9248
0.784	90.9363
0.778	90.8241
0.772	90.7952
0.766	90.7533
0.76	90.7219
0.754	90.6024
0.748	90.5711
0.742	90.5889
0.736	90.7139
0.73	90.7913
0.724	90.8175
0.718	90.8524
0.712	90.8537
0.706	90.8994
0.7	90.8414
0.694	90.861
0.688	90.8407
0.682	90.8598
0.676	90.7999
0.67	90.8079
0.664	90.8073
0.658	90.8589
0.652	90.8521
0.646	90.8088
0.64	90.7967
0.634	90.7894
0.628	90.7442
0.622	90.7341
0.616	90.688
0.61	90.6709
0.604	90.6384
0.598	90.641
0.592	90.6523
0.586	90.59
0.58	90.5508
0.574	90.4558
0.568	90.3416
0.562	90.2596
0.556	90.1282
0.55	90.068
0.544	89.9232
0.538	89.8421
0.532	89.708
0.526	89.6154
0.52	89.4972
0.514	89.3839
0.508	89.2467
0.502	89.1243
0.496	88.9937
0.49	88.8685
0.484	88.6746
0.478	88.5402
0.472	88.3789
0.466	88.2069
0.46	88.0225
0.454	87.8575
0.448	87.6578
0.442	87.4302
0.436	87.1904
0.43	86.9015
0.424	86.6644
0.418	86.4861
0.412	86.3113
0.406	86.1283
0.4	85.928
