Name: Corrensite (Mg,Fe)_9(Si,Al)_8O_20(OH)_10._xH_2O
Type: Mineral
Class: Silicates
Subclass: Phyllosilicates
Particle Size: 45-125um
Sample No.: PS-10A
Owner: JPL
Origin: USA, Washington, Packwood.
Measurement: Hemispherical reflectance
X Units: Wavelength (micrometers)
Y Units: Reflectance (percent)
wavelength	value
2.5	35.3039
2.494	35.426
2.488	35.7856
2.482	36.121
2.476	36.4775
2.47	36.9719
2.464	37.4341
2.458	37.8388
2.452	38.3799
2.446	38.8443
2.44	39.1913
2.434	39.6305
2.428	40.0356
2.422	40.2435
2.416	40.524
2.41	40.7432
2.404	40.8129
2.398	40.9787
2.392	41.2583
2.386	41.4016
2.38	41.4982
2.374	41.5375
2.368	41.4572
2.362	41.3911
2.356	41.3565
2.35	41.4032
2.344	41.5699
2.338	41.8165
2.332	42.1026
2.326	42.4149
2.32	42.7097
2.314	42.9497
2.308	43.2354
2.302	43.3712
2.296	43.6192
2.29	44.0117
2.284	44.5228
2.278	45.1948
2.272	45.7956
2.266	46.2699
2.26	46.6782
2.254	47.275
2.248	47.8781
2.242	48.8302
2.236	49.7755
2.23	50.8638
2.224	51.3618
2.218	52.0227
2.212	52.2956
2.206	52.6808
2.2	52.9022
2.194	53.2786
2.188	53.7027
2.182	54.112
2.176	54.4855
2.17	54.8559
2.164	55.0824
2.158	55.2872
2.152	55.4055
2.146	55.4864
2.14	55.4718
2.134	55.3379
2.128	55.2407
2.122	55.0426
2.116	54.8354
2.11	54.6581
2.104	54.3919
2.098	54.2296
2.092	54.1619
2.086	53.9614
2.08	53.7419
2.074	53.6294
2.068	53.4025
2.062	53.0525
2.056	52.8212
2.05	52.5468
2.044	52.1509
2.038	51.7967
2.032	51.423
2.026	50.9601
2.02	50.4803
2.014	49.9824
2.008	49.5497
2.002	48.999
1.996	48.4443
1.99	47.8787
1.984	47.4491
1.978	46.9253
1.972	46.448
1.966	45.9313
1.96	45.4545
1.954	44.9996
1.948	44.468
1.942	43.9506
1.936	43.2403
1.93	42.6133
1.924	41.9912
1.918	41.784
1.912	42.2012
1.906	43.7355
1.9	46.6445
1.894	49.6052
1.888	52.0294
1.882	53.7525
1.876	54.9724
1.87	55.9666
1.864	56.5053
1.858	56.8246
1.852	57.1062
1.846	57.2177
1.84	57.3244
1.834	57.2876
1.828	57.2806
1.822	57.2182
1.816	57.1809
1.81	57.1598
1.804	57.1063
1.798	57.066
1.792	56.9316
1.786	56.8098
1.78	56.7837
1.774	56.6979
1.768	56.6912
1.762	56.5848
1.756	56.5987
1.75	56.4938
1.744	56.4363
1.738	56.3507
1.732	56.2806
1.726	56.161
1.72	56.149
1.714	55.8831
1.708	55.77
1.702	55.7089
1.696	55.508
1.69	55.3597
1.684	55.1605
1.678	54.9829
1.672	54.8566
1.666	54.6848
1.66	54.5153
1.654	54.2986
1.648	54.0536
1.642	53.945
1.636	53.6878
1.63	53.4699
1.624	53.3072
1.618	53.068
1.612	52.8207
1.606	52.6841
1.6	52.4148
1.594	52.3083
1.588	51.9953
1.582	51.8022
1.576	51.4501
1.57	51.2717
1.564	50.9492
1.558	50.769
1.552	50.4682
1.546	50.2683
1.54	49.9281
1.534	49.7094
1.528	49.3923
1.522	49.1223
1.516	48.7239
1.51	48.4461
1.504	48.0799
1.498	47.8102
1.492	47.3513
1.486	46.9824
1.48	46.5412
1.474	46.1261
1.468	45.6946
1.462	45.2858
1.456	44.8213
1.45	44.3976
1.444	43.7913
1.438	43.4101
1.432	43.0515
1.426	42.7823
1.42	42.4696
1.414	41.9771
1.408	41.9612
1.402	41.7588
1.396	42.6495
1.39	43.4962
1.384	44.0528
1.378	44.0027
1.372	43.7872
1.366	43.5265
1.36	43.1298
1.354	42.8961
1.348	42.5934
1.342	42.1718
1.336	41.891
1.33	41.5716
1.324	41.1117
1.318	40.8733
1.312	40.4818
1.306	40.0791
1.3	39.796
1.294	39.412
1.288	39.0086
1.282	38.7075
1.276	38.3414
1.27	37.9489
1.264	37.6007
1.258	37.2675
1.252	36.8597
1.246	36.4725
1.24	36.1373
1.234	35.718
1.228	35.3843
1.222	34.9576
1.216	34.6157
1.21	34.2409
1.204	33.8757
1.198	33.5627
1.192	33.2291
1.186	32.8442
1.18	32.5743
1.174	32.1911
1.168	31.937
1.162	31.6591
1.156	31.3403
1.15	31.0289
1.144	30.838
1.138	30.5664
1.132	30.2876
1.126	30.0338
1.12	29.8863
1.114	29.6492
1.108	29.4448
1.102	29.2369
1.096	29.066
1.09	28.8767
1.084	28.7
1.078	28.5798
1.072	28.4879
1.066	28.4043
1.06	28.3194
1.054	28.231
1.048	28.1567
1.042	28.0795
1.036	28.0411
1.03	27.9361
1.024	27.9197
1.018	27.7708
1.012	27.6787
1.006	27.718
1	27.6173
0.994	27.5328
0.988	27.4584
0.982	27.3974
0.976	27.3015
0.97	27.1258
0.964	26.9843
0.958	26.9097
0.952	26.7532
0.946	26.6379
0.94	26.4747
0.934	26.337
0.928	26.2877
0.922	26.0859
0.916	25.9621
0.91	25.8796
0.904	25.7261
0.898	25.6944
0.892	25.6384
0.886	25.6162
0.88	25.6551
0.874	25.667
0.868	25.624
0.862	25.7452
0.856	26.0302
0.85	26.0934
0.844	26.1755
0.838	26.2262
0.832	26.2988
0.826	26.3655
0.82	26.4042
0.814	26.4007
0.808	26.3777
0.802	26.2836
0.796	26.142
0.79	25.9745
0.784	25.7783
0.778	25.5257
0.772	25.2517
0.766	24.9566
0.76	24.6448
0.754	24.3515
0.748	24.0326
0.742	23.7434
0.736	23.4584
0.73	23.2024
0.724	22.9505
0.718	22.7314
0.712	22.5237
0.706	22.3283
0.7	22.1423
0.694	21.9939
0.688	21.8311
0.682	21.6878
0.676	21.535
0.67	21.3944
0.664	21.2505
0.658	21.0978
0.652	20.9546
0.646	20.7937
0.64	20.6293
0.634	20.4645
0.628	20.2984
0.622	20.1179
0.616	19.9366
0.61	19.7541
0.604	19.572
0.598	19.3953
0.592	19.2243
0.586	19.0362
0.58	18.8415
0.574	18.64
0.568	18.4284
0.562	18.1972
0.556	17.9255
0.55	17.622
0.544	17.3104
0.538	16.8981
0.532	16.4214
0.526	15.8995
0.52	15.3102
0.514	14.6621
0.508	13.9829
0.502	13.3199
0.496	12.6879
0.49	12.1772
0.484	11.7455
0.478	11.4089
0.472	11.1453
0.466	10.9371
0.46	10.7628
0.454	10.5438
0.448	10.2244
0.442	9.75755
0.436	9.21088
0.43	8.69553
0.424	8.26258
0.418	7.9325
0.412	7.69158
0.406	7.47833
0.4	7.26658
