Name: Clinochlore (Chlorite) (Mg,Al)_6(Si,Al)_4O_10(OH)_8
Type: Mineral
Class: Silicates
Subclass: Phyllosilicates
Particle Size: 0-45um
Sample No.: PS-12A
Owner: JPL
Origin: USA, California, El Dorado County, Flagstaff Hill.
Measurement: Hemispherical reflectance
X Units: Wavelength (micrometers)
Y Units: Reflectance (percent)
wavelength	value
2.5	50.3362
2.494	50.3156
2.488	50.3909
2.482	50.7805
2.476	51.0744
2.47	51.5259
2.464	52.1288
2.458	52.661
2.452	53.1914
2.446	53.578
2.44	53.7558
2.434	53.9857
2.428	54.2565
2.422	54.1873
2.416	54.075
2.41	54.023
2.404	53.8041
2.398	53.6326
2.392	53.4191
2.386	52.9836
2.38	52.4844
2.374	51.6138
2.368	50.4449
2.362	49.478
2.356	48.5329
2.35	47.899
2.344	47.6536
2.338	47.8458
2.332	48.2854
2.326	48.9016
2.32	49.5523
2.314	50.0399
2.308	50.4835
2.302	50.9984
2.296	51.644
2.29	52.2481
2.284	52.8525
2.278	53.0949
2.272	52.9786
2.266	52.2996
2.26	51.6666
2.254	51.2899
2.248	52.131
2.242	53.9928
2.236	56.3083
2.23	58.137
2.224	59.1693
2.218	59.9785
2.212	60.4855
2.206	60.7794
2.2	61.1938
2.194	61.4171
2.188	61.7213
2.182	61.9279
2.176	62.1444
2.17	62.2921
2.164	62.4191
2.158	62.5432
2.152	62.6173
2.146	62.6674
2.14	62.5979
2.134	62.5202
2.128	62.2622
2.122	62.0053
2.116	61.8084
2.11	61.5575
2.104	61.434
2.098	61.3325
2.092	61.2739
2.086	61.1719
2.08	61.0697
2.074	60.9556
2.068	60.8033
2.062	60.7387
2.056	60.4957
2.05	60.2876
2.044	60.0286
2.038	59.7661
2.032	59.2995
2.026	58.9058
2.02	58.4353
2.014	58.0342
2.008	57.758
2.002	57.5693
1.996	57.4853
1.99	57.3334
1.984	57.3612
1.978	57.4125
1.972	57.4461
1.966	57.4166
1.96	57.2599
1.954	57.2389
1.948	57.1921
1.942	57.3185
1.936	57.2199
1.93	57.1537
1.924	57.0464
1.918	56.9831
1.912	56.8598
1.906	56.8827
1.9	56.7562
1.894	56.7611
1.888	56.7485
1.882	56.6371
1.876	56.5873
1.87	56.5241
1.864	56.5542
1.858	56.4888
1.852	56.4868
1.846	56.2966
1.84	56.2268
1.834	56.0889
1.828	55.9219
1.822	55.8
1.816	55.5945
1.81	55.5525
1.804	55.3157
1.798	55.1257
1.792	54.9274
1.786	54.7538
1.78	54.5255
1.774	54.2593
1.768	54.1091
1.762	53.8583
1.756	53.5998
1.75	53.4224
1.744	53.2056
1.738	53.0411
1.732	52.8121
1.726	52.5271
1.72	52.292
1.714	52.0974
1.708	51.7855
1.702	51.6266
1.696	51.3222
1.69	51.0522
1.684	50.7864
1.678	50.4708
1.672	50.2183
1.666	50
1.66	49.6234
1.654	49.346
1.648	49.1155
1.642	48.8349
1.636	48.4889
1.63	48.2766
1.624	48.0037
1.618	47.5832
1.612	47.3249
1.606	47.0379
1.6	46.6706
1.594	46.3657
1.588	46.0357
1.582	45.7412
1.576	45.3472
1.57	45.099
1.564	44.7733
1.558	44.3748
1.552	44.2031
1.546	43.9204
1.54	43.6132
1.534	43.299
1.528	43.0289
1.522	42.7466
1.516	42.5325
1.51	42.2837
1.504	42.0047
1.498	41.6448
1.492	41.4094
1.486	41.079
1.48	40.7706
1.474	40.4053
1.468	40.0101
1.462	39.6715
1.456	39.3437
1.45	38.9456
1.444	38.7063
1.438	38.4813
1.432	38.1981
1.426	37.9295
1.42	37.3037
1.414	36.3899
1.408	35.8029
1.402	35.5203
1.396	35.6381
1.39	36.0227
1.384	35.9968
1.378	35.7795
1.372	35.2786
1.366	35.0787
1.36	34.6049
1.354	34.166
1.348	33.8125
1.342	33.5268
1.336	33.1963
1.33	32.7667
1.324	32.4552
1.318	32.0713
1.312	31.7043
1.306	31.2697
1.3	30.9342
1.294	30.5449
1.288	30.2182
1.282	29.8525
1.276	29.4985
1.27	29.1171
1.264	28.8433
1.258	28.4662
1.252	28.0511
1.246	27.7696
1.24	27.4396
1.234	27.0508
1.228	26.7549
1.222	26.4331
1.216	26.109
1.21	25.8265
1.204	25.577
1.198	25.2567
1.192	25.0177
1.186	24.7352
1.18	24.4832
1.174	24.2618
1.168	24.0566
1.162	23.8017
1.156	23.6245
1.15	23.4434
1.144	23.2447
1.138	23.1042
1.132	22.9534
1.126	22.9206
1.12	22.6844
1.114	22.6081
1.108	22.5126
1.102	22.3736
1.096	22.4021
1.09	22.2484
1.084	22.2524
1.078	22.2405
1.072	22.1498
1.066	22.0856
1.06	22.0602
1.054	22.0101
1.048	22.0327
1.042	21.9976
1.036	21.9031
1.03	21.8905
1.024	21.7775
1.018	21.7803
1.012	21.6834
1.006	21.6585
1	21.4518
0.994	21.3527
0.988	21.2029
0.982	20.9935
0.976	20.8621
0.97	20.6905
0.964	20.4448
0.958	20.2849
0.952	20.0644
0.946	19.8475
0.94	19.6602
0.934	19.5253
0.928	19.3157
0.922	19.2234
0.916	19.1106
0.91	18.989
0.904	18.9349
0.898	18.9289
0.892	18.9496
0.886	18.9465
0.88	18.9544
0.874	19.0285
0.868	19.0531
0.862	19.1518
0.856	19.6488
0.85	19.7817
0.844	19.9225
0.838	20.0436
0.832	20.1512
0.826	20.1994
0.82	20.2552
0.814	20.2821
0.808	20.2624
0.802	20.1967
0.796	20.0722
0.79	19.8896
0.784	19.7061
0.778	19.5081
0.772	19.2704
0.766	19.013
0.76	18.775
0.754	18.5591
0.748	18.3568
0.742	18.1918
0.736	18.0399
0.73	17.9451
0.724	17.873
0.718	17.8383
0.712	17.849
0.706	17.896
0.7	17.979
0.694	18.1074
0.688	18.2084
0.682	18.3972
0.676	18.6148
0.67	18.8608
0.664	19.1301
0.658	19.4122
0.652	19.7109
0.646	20.0282
0.64	20.3571
0.634	20.6989
0.628	21.0465
0.622	21.403
0.616	21.7608
0.61	22.1182
0.604	22.4776
0.598	22.8305
0.592	23.1878
0.586	23.5095
0.58	23.8066
0.574	24.0662
0.568	24.2825
0.562	24.4401
0.556	24.539
0.55	24.558
0.544	24.5169
0.538	24.4153
0.532	24.3148
0.526	24.2324
0.52	24.0949
0.514	23.8145
0.508	23.4103
0.502	22.8453
0.496	22.1514
0.49	21.908
0.484	21.3844
0.478	20.7094
0.472	20.0074
0.466	19.3808
0.46	18.8962
0.454	18.5049
0.448	18.222
0.442	17.8457
0.436	17.1688
0.43	16.4666
0.424	15.7333
0.418	15.0188
0.412	14.4181
0.406	13.9624
0.4	13.6382
