Name: Atacamite Cu_2Cl(OH)_3
Type: Mineral
Class: Halides
Particle Size: 45-125um
Sample No.: H-4A
Owner: JPL
Wavelength Range: VNIR-SWIR
Origin: Chile, Atacama, Copiapo
Measurement: Hemispherical reflectance
X Units: Wavelength (micrometers)
Y Units: Reflectance (percent)
wavelength	value
0.4	9.25
0.403	9.85
0.406	10.15
0.409	10.45
0.412	10.73
0.415	11.08
0.418	11.4
0.421	11.84
0.424	12.14
0.427	12.49
0.43	12.72
0.433	13.19
0.436	13.52
0.439	13.83
0.442	14.22
0.445	14.61
0.448	14.88
0.451	15.29
0.454	15.59
0.457	15.92
0.46	16.21
0.463	16.62
0.466	16.98
0.469	17.42
0.472	17.74
0.475	18.19
0.478	18.54
0.481	18.87
0.484	19.2
0.487	19.46
0.49	19.69
0.493	19.93
0.496	20.2
0.499	20.42
0.502	20.54
0.505	20.75
0.508	20.82
0.511	20.86
0.514	20.92
0.517	20.89
0.52	20.94
0.523	20.82
0.526	20.8
0.529	20.56
0.532	20.28
0.535	20.07
0.538	19.8
0.541	19.47
0.544	19.16
0.547	18.8
0.55	18.24
0.553	17.76
0.556	17.38
0.559	17.03
0.562	16.44
0.565	15.88
0.568	15.18
0.571	14.65
0.574	14.08
0.577	13.53
0.58	12.97
0.583	12.39
0.586	11.85
0.589	11.31
0.592	10.78
0.595	10.49
0.598	10.07
0.601	9.7
0.604	9.15
0.607	8.88
0.61	8.37
0.613	7.82
0.616	7.44
0.619	7.14
0.622	6.76
0.625	6.5
0.628	6.23
0.631	5.94
0.634	5.68
0.637	5.55
0.64	5.26
0.643	5.03
0.646	4.93
0.649	4.68
0.652	4.57
0.655	4.52
0.658	4.35
0.661	4.22
0.664	4.11
0.667	3.89
0.67	3.83
0.673	3.78
0.676	3.78
0.679	3.66
0.682	3.59
0.685	3.54
0.688	3.54
0.691	3.48
0.694	3.43
0.697	3.32
0.7	3.32
0.703	3.26
0.706	3.25
0.709	3.2
0.712	3.19
0.715	3.09
0.718	3.19
0.721	3.14
0.724	3.19
0.727	3.2
0.73	3.19
0.733	3.19
0.736	3.14
0.739	3.19
0.742	3.25
0.745	3.25
0.748	3.24
0.751	3.25
0.754	3.19
0.757	3.3
0.76	3.36
0.763	3.37
0.766	3.41
0.769	3.47
0.772	3.42
0.775	3.52
0.778	3.52
0.781	3.58
0.784	3.69
0.787	3.69
0.79	3.75
0.793	4.09
0.796	4.09
0.799	4.12
0.808	4.52
0.82	4.72
0.832	4.84
0.844	5.02
0.856	5.27
0.868	5.47
0.88	5.77
0.892	6.12
0.904	6.47
0.916	6.83
0.928	7.23
0.94	7.77
0.952	8.34
0.964	8.86
0.976	9.55
0.988	10.2
1	10.78
1.012	11.6
1.024	12.25
1.036	13.01
1.048	13.7
1.06	14.47
1.072	15.2
1.084	15.85
1.096	16.62
1.108	17.28
1.12	17.88
1.132	18.69
1.144	19.27
1.156	19.86
1.168	20.58
1.18	21.25
1.192	21.9
1.204	22.6
1.216	23.32
1.228	23.97
1.24	24.64
1.252	25.39
1.264	26.04
1.276	26.81
1.288	27.44
1.3	28.05
1.312	28.67
1.324	29.31
1.336	29.8
1.348	30.3
1.36	30.84
1.372	30.98
1.384	30.72
1.396	29.2
1.408	25.78
1.42	27.66
1.432	29.07
1.444	29.84
1.456	29.92
1.468	29.72
1.48	32.1
1.492	32.81
1.504	34.34
1.516	35.71
1.528	36.77
1.54	37.72
1.552	37.51
1.564	39.22
1.576	40.43
1.588	40.94
1.6	41.89
1.612	42.82
1.624	43.59
1.636	44.22
1.648	44.83
1.66	45.4
1.672	45.48
1.684	45.35
1.696	45.8
1.708	46.63
1.72	46.74
1.732	46.97
1.744	47.42
1.756	47.43
1.768	47.69
1.78	47.97
1.792	48.16
1.804	48.18
1.816	48.54
1.828	48.58
1.84	46.78
1.852	44.39
1.864	43.56
1.876	38.75
1.888	31.27
1.9	24.47
1.912	22.39
1.924	22.83
1.936	23.47
1.948	24.36
1.96	25.23
1.972	25.68
1.984	26.22
1.996	28.82
2.008	32.33
2.02	34.68
2.032	36.43
2.044	37.72
2.056	38.76
2.068	39.42
2.08	39.91
2.092	40.19
2.104	40.52
2.116	40.66
2.128	39.95
2.14	37.29
2.152	34.73
2.164	35.32
2.176	36.82
2.188	36.6
2.2	35.98
2.212	35.42
2.224	34.06
2.236	31.21
2.248	28.46
2.26	27.3
2.272	27.38
2.284	27.54
2.296	27.31
2.308	26.67
2.32	25.95
2.332	25.15
2.344	25.12
2.356	25.24
2.368	24.81
2.38	24.37
2.392	23.91
2.404	23.71
2.416	23.38
2.428	22.75
2.44	20.99
2.452	18.91
2.464	17.61
2.476	17.63
2.488	18.34
2.5	18.57
