Name: Enstatite Mg_2(SiO_3)_2
Type: Mineral
Class: Silicates
Subclass: Inosilicates
Particle Size: 125-500um
Sample No.: IN-10B
Owner: JPL
Wavelength Range: VNIR-SWIR
Origin: Norway, Telemark
Measurement: Hemispherical reflectance
X Units: Wavelength (micrometers)
Y Units: Reflectance (percent)
wavelength	value
0.4	16.59
0.403	17.27
0.406	17.68
0.409	18.28
0.412	18.66
0.415	18.99
0.418	19.11
0.421	19.22
0.424	18.8
0.427	19.07
0.43	19.8
0.433	20.31
0.436	20.63
0.439	20.77
0.442	20.92
0.445	20.83
0.448	20.9
0.451	21.16
0.454	21.39
0.457	21.63
0.46	21.75
0.463	21.92
0.466	22.01
0.469	22.11
0.472	22.38
0.475	22.73
0.478	22.61
0.481	23.02
0.484	23.47
0.487	23.75
0.49	23.96
0.493	24.22
0.496	24.26
0.499	24.12
0.502	23.51
0.505	22.63
0.508	25.01
0.511	25.44
0.514	25.85
0.517	25.83
0.52	26.16
0.523	26.32
0.526	26.42
0.529	26.37
0.532	26.34
0.535	26.14
0.538	25.9
0.541	25.81
0.544	25.56
0.547	25.56
0.55	25.88
0.553	26.31
0.556	26.6
0.559	26.8
0.562	27.37
0.565	27.55
0.568	27.61
0.571	27.74
0.574	27.94
0.577	27.91
0.58	28.08
0.583	28.16
0.586	28.19
0.589	28.2
0.592	28.48
0.595	28.55
0.598	28.73
0.601	28.67
0.604	29
0.607	28.88
0.61	28.93
0.613	29.14
0.616	29.19
0.619	29.3
0.622	29.36
0.625	29.41
0.628	29.56
0.631	29.73
0.634	29.57
0.637	29.84
0.64	29.92
0.643	29.98
0.646	29.98
0.649	30.03
0.652	30.25
0.655	30.23
0.658	30.38
0.661	30.42
0.664	30.5
0.667	30.54
0.67	30.64
0.673	30.72
0.676	30.7
0.679	30.72
0.682	30.82
0.685	30.72
0.688	30.78
0.691	30.86
0.694	30.8
0.697	30.66
0.7	30.69
0.703	30.41
0.706	30.27
0.709	30.08
0.712	29.85
0.715	29.56
0.718	29.23
0.721	29.04
0.724	28.62
0.727	28.14
0.73	27.76
0.733	27.14
0.736	26.63
0.739	25.96
0.742	25.46
0.745	24.69
0.748	24.09
0.751	23.3
0.754	22.44
0.757	21.67
0.76	20.95
0.763	20.19
0.766	19.26
0.769	18.59
0.772	17.62
0.775	16.86
0.778	16.04
0.781	15.44
0.784	14.78
0.787	14.17
0.79	13.5
0.793	12.93
0.796	12.42
0.799	11.81
0.808	10.53
0.82	8.93
0.832	7.7
0.844	6.78
0.856	6.18
0.868	5.72
0.88	5.48
0.892	5.3
0.904	5.18
0.916	5.23
0.928	5.42
0.94	5.55
0.952	6.02
0.964	6.62
0.976	7.33
0.988	8.5
1	9.79
1.012	12
1.024	14.34
1.036	17.09
1.048	20.08
1.06	22.74
1.072	25.59
1.084	27.91
1.096	29.61
1.108	31.09
1.12	32.04
1.132	32.89
1.144	33.38
1.156	33.75
1.168	34.09
1.18	34.25
1.192	34.39
1.204	34.68
1.216	34.63
1.228	34.69
1.24	34.82
1.252	34.76
1.264	34.68
1.276	34.57
1.288	34.39
1.3	34.16
1.312	33.8
1.324	33.29
1.336	32.9
1.348	32.26
1.36	31.67
1.372	30.94
1.384	29.3
1.396	28.56
1.408	28.32
1.42	27.5
1.432	26.51
1.444	25.52
1.456	24.58
1.468	23.48
1.48	22.54
1.492	21.39
1.504	20.42
1.516	19.41
1.528	18.49
1.54	17.49
1.552	16.68
1.564	15.89
1.576	15.03
1.588	14.36
1.6	13.59
1.612	12.9
1.624	12.31
1.636	11.72
1.648	11.21
1.66	10.77
1.672	10.22
1.684	9.92
1.696	9.45
1.708	9.06
1.72	8.89
1.732	8.55
1.744	8.34
1.756	8.07
1.768	7.95
1.78	7.7
1.792	7.6
1.804	7.5
1.816	7.37
1.828	7.36
1.84	7.26
1.852	7.21
1.864	7.22
1.876	7.26
1.888	7.27
1.9	7.37
1.912	7.38
1.924	7.5
1.936	7.68
1.948	7.7
1.96	8.07
1.972	8.23
1.984	8.56
1.996	8.77
2.008	9.13
2.02	9.59
2.032	9.91
2.044	10.42
2.056	10.87
2.068	11.35
2.08	12.01
2.092	12.6
2.104	13.33
2.116	13.85
2.128	14.55
2.14	15.37
2.152	15.95
2.164	16.83
2.176	17.47
2.188	18.23
2.2	18.98
2.212	19.56
2.224	20.37
2.236	21.06
2.248	21.69
2.26	22.23
2.272	22.55
2.284	22.83
2.296	23.16
2.308	23.8
2.32	24.49
2.332	25.35
2.344	25.94
2.356	26.31
2.368	26.6
2.38	26.68
2.392	26.96
2.404	27.43
2.416	27.71
2.428	28.03
2.44	28.15
2.452	28.35
2.464	28.4
2.476	28.68
2.488	28.99
2.5	29.22
