Name: Hydroxyapophyllite KCa_4Si_8O_20(OH,F).8H_2O
Type: Mineral
Class: Silicates
Subclass: Phyllosilicates
Particle Size: 45-125um
Sample No.: PS-22A
Owner: JPL
Wavelength Range: VNIR-SWIR
Origin: India, Maharashtra, Poona
Measurement: Hemispherical reflectance
X Units: Wavelength (micrometers)
Y Units: Reflectance (percent)
wavelength	value
0.4	85.77
0.403	86.01
0.406	86.02
0.409	86.14
0.412	86.04
0.415	86.38
0.418	86.32
0.421	86.29
0.424	86.45
0.427	86.46
0.43	86.41
0.433	86.93
0.436	86.9
0.439	86.96
0.442	87.07
0.445	87.06
0.448	87.24
0.451	87.07
0.454	87.23
0.457	87.41
0.46	87.41
0.463	87.58
0.466	87.52
0.469	87.71
0.472	87.77
0.475	88
0.478	87.84
0.481	87.98
0.484	88.12
0.487	88.08
0.49	88.12
0.493	88.15
0.496	88.29
0.499	88.32
0.502	88.16
0.505	88.51
0.508	88.35
0.511	88.54
0.514	88.55
0.517	88.64
0.52	88.76
0.523	88.69
0.526	88.91
0.529	88.75
0.532	88.81
0.535	88.81
0.538	88.93
0.541	88.71
0.544	88.79
0.547	88.82
0.55	88.96
0.553	88.81
0.556	88.91
0.559	88.85
0.562	89.17
0.565	89.17
0.568	89.06
0.571	89.04
0.574	88.79
0.577	88.9
0.58	88.71
0.583	88.65
0.586	88.63
0.589	88.7
0.592	88.75
0.595	88.69
0.598	88.54
0.601	88.7
0.604	88.84
0.607	88.65
0.61	88.82
0.613	88.74
0.616	88.62
0.619	88.45
0.622	88.61
0.625	88.52
0.628	88.51
0.631	88.51
0.634	88.49
0.637	88.34
0.64	88.46
0.643	88.4
0.646	88.55
0.649	88.58
0.652	88.67
0.655	88.62
0.658	88.5
0.661	88.63
0.664	88.57
0.667	88.69
0.67	88.67
0.673	88.72
0.676	88.67
0.679	88.63
0.682	88.79
0.685	88.67
0.688	88.79
0.691	88.74
0.694	88.84
0.697	88.66
0.7	88.79
0.703	88.78
0.706	88.7
0.709	88.97
0.712	88.98
0.715	88.78
0.718	88.74
0.721	88.75
0.724	88.85
0.727	88.63
0.73	88.86
0.733	88.91
0.736	88.62
0.739	88.68
0.742	88.64
0.745	88.63
0.748	88.36
0.751	88.48
0.754	88.34
0.757	88.01
0.76	88.24
0.763	88.4
0.766	88.48
0.769	88.36
0.772	88.58
0.775	88.7
0.778	88.64
0.781	88.63
0.784	88.6
0.787	88.55
0.79	88.58
0.793	88.82
0.796	88.75
0.799	88.46
0.808	88.41
0.82	88.52
0.832	88.34
0.844	88.27
0.856	88.2
0.868	88.5
0.88	88.25
0.892	88.25
0.904	88
0.916	87.97
0.928	87.78
0.94	87.64
0.952	87.52
0.964	85.85
0.976	81.87
0.988	83.7
1	86.09
1.012	86.99
1.024	87.16
1.036	87.25
1.048	87.17
1.06	87.11
1.072	87.06
1.084	86.72
1.096	86.84
1.108	86.93
1.12	86.92
1.132	86.27
1.144	83.97
1.156	76.77
1.168	80.69
1.18	83.39
1.192	84
1.204	83.91
1.216	84.06
1.228	84.21
1.24	83.95
1.252	83.54
1.264	83.14
1.276	82.62
1.288	81.71
1.3	81.09
1.312	79.27
1.324	78.19
1.336	76.77
1.348	77.64
1.36	78.08
1.372	77.83
1.384	76.95
1.396	72.69
1.408	66.52
1.42	56.5
1.432	43.97
1.444	46.04
1.456	57.18
1.468	60.13
1.48	60.55
1.492	60.01
1.504	59.1
1.516	59.14
1.528	62.26
1.54	64.17
1.552	64.9
1.564	64.9
1.576	64.11
1.588	63.04
1.6	61.54
1.612	59.87
1.624	58.1
1.636	56.2
1.648	54.37
1.66	52.75
1.672	51.14
1.684	49.31
1.696	47.09
1.708	45.33
1.72	44.5
1.732	43.88
1.744	43.14
1.756	42.87
1.768	42.47
1.78	42.28
1.792	42.27
1.804	42.24
1.816	42.28
1.828	42.5
1.84	42.33
1.852	41.4
1.864	39.69
1.876	36.83
1.888	29.78
1.9	18.43
1.912	16.44
1.924	24.34
1.936	30.47
1.948	32.51
1.96	33
1.972	32.81
1.984	32.73
1.996	32.96
2.008	33.17
2.02	33.41
2.032	33.59
2.044	33.65
2.056	33.67
2.068	33.93
2.08	34.34
2.092	34.21
2.104	33.24
2.116	32.08
2.128	31.25
2.14	31.35
2.152	32.42
2.164	33.35
2.176	34.06
2.188	34.89
2.2	36.09
2.212	37.07
2.224	38.06
2.236	38.74
2.248	39.16
2.26	39.07
2.272	38.69
2.284	37.74
2.296	36.74
2.308	36.42
2.32	36.37
2.332	35.31
2.344	31.55
2.356	25.33
2.368	18.87
2.38	14.86
2.392	13.52
2.404	14.07
2.416	15.58
2.428	16.55
2.44	16.2
2.452	15.44
2.464	15.64
2.476	16.9
2.488	18.26
2.5	19.54
