Name: Glauconite (K,Na)(Fe^3+,Al,Mg)_2(Si,Al)_4O_10(OH)_2
Type: Mineral
Class: Silicates
Subclass: Phyllosilicates
Particle Size: 45-125um
Sample No.: PS-19A
Owner: JPL
Origin: USA, New Jersey.
Measurement: Hemispherical reflectance
X Units: Wavelength (micrometers)
Y Units: Reflectance (percent)
wavelength	value
2.5	19.3575
2.494	19.5178
2.488	19.7552
2.482	19.8913
2.476	20.1492
2.47	20.3799
2.464	20.7693
2.458	21.1449
2.452	21.3552
2.446	21.6984
2.44	21.9891
2.434	22.3475
2.428	22.7914
2.422	23.0882
2.416	23.3274
2.41	23.3852
2.404	23.3838
2.398	23.2169
2.392	22.7913
2.386	22.2682
2.38	21.6059
2.374	21.042
2.368	20.6322
2.362	20.593
2.356	20.7383
2.35	21.1622
2.344	21.5739
2.338	21.8006
2.332	21.7104
2.326	21.1322
2.32	20.3249
2.314	19.5943
2.308	19.3411
2.302	19.7614
2.296	20.806
2.29	22.13
2.284	23.3632
2.278	24.148
2.272	24.3912
2.266	24.3903
2.26	24.2773
2.254	24.0952
2.248	24.2959
2.242	24.7427
2.236	25.2384
2.23	25.7116
2.224	26.0857
2.218	26.4288
2.212	26.6552
2.206	26.6228
2.2	26.7358
2.194	26.8114
2.188	26.9651
2.182	27.0014
2.176	27.0476
2.17	27.1028
2.164	27.0246
2.158	26.9672
2.152	26.8808
2.146	26.7213
2.14	26.5956
2.134	26.4717
2.128	26.2862
2.122	26.0271
2.116	25.7563
2.11	25.3657
2.104	25.1939
2.098	24.827
2.092	24.6151
2.086	24.4037
2.08	24.1427
2.074	23.9088
2.068	23.6305
2.062	23.3117
2.056	23.0479
2.05	22.7704
2.044	22.4702
2.038	22.1936
2.032	21.8287
2.026	21.4471
2.02	21.0797
2.014	20.7479
2.008	20.4151
2.002	20.0217
1.996	19.611
1.99	19.2116
1.984	18.8253
1.978	18.4414
1.972	18.085
1.966	17.6855
1.96	17.2819
1.954	16.9374
1.948	16.6683
1.942	16.2893
1.936	15.9251
1.93	15.5634
1.924	15.0352
1.918	14.5892
1.912	14.1314
1.906	14.0294
1.9	14.4829
1.894	15.3321
1.888	15.8532
1.882	16.1936
1.876	16.2269
1.87	16.1367
1.864	16.1147
1.858	15.9219
1.852	15.7611
1.846	15.4909
1.84	15.2585
1.834	14.9664
1.828	14.77
1.822	14.5881
1.816	14.3231
1.81	14.0578
1.804	13.8282
1.798	13.6367
1.792	13.3696
1.786	13.1403
1.78	12.9102
1.774	12.6854
1.768	12.5342
1.762	12.2875
1.756	12.0791
1.75	11.898
1.744	11.6958
1.738	11.4056
1.732	11.2291
1.726	10.9706
1.72	10.8326
1.714	10.6294
1.708	10.4081
1.702	10.1749
1.696	10.0249
1.69	9.85708
1.684	9.62574
1.678	9.47246
1.672	9.33682
1.666	9.06894
1.66	8.97718
1.654	8.75416
1.648	8.5892
1.642	8.53601
1.636	8.4256
1.63	8.09012
1.624	7.95741
1.618	7.84114
1.612	7.68467
1.606	7.63202
1.6	7.45661
1.594	7.30264
1.588	7.15097
1.582	7.02857
1.576	6.90071
1.57	6.78812
1.564	6.60714
1.558	6.53879
1.552	6.42314
1.546	6.28447
1.54	6.17074
1.534	6.10454
1.528	5.96261
1.522	5.90057
1.516	5.80849
1.51	5.68983
1.504	5.5892
1.498	5.51168
1.492	5.46226
1.486	5.3036
1.48	5.18375
1.474	5.16206
1.468	5.09847
1.462	4.9768
1.456	4.87125
1.45	4.74353
1.444	4.68876
1.438	4.61329
1.432	4.57484
1.426	4.53819
1.42	4.46614
1.414	4.41134
1.408	4.31977
1.402	4.38495
1.396	4.35061
1.39	4.29952
1.384	4.24893
1.378	4.29724
1.372	4.10543
1.366	4.16855
1.36	4.08285
1.354	3.9928
1.348	3.95017
1.342	3.87676
1.336	3.81305
1.33	3.86151
1.324	3.81092
1.318	3.73589
1.312	3.69119
1.306	3.60216
1.3	3.63073
1.294	3.58596
1.288	3.55552
1.282	3.57268
1.276	3.44661
1.27	3.4248
1.264	3.4049
1.258	3.42361
1.252	3.40642
1.246	3.33402
1.24	3.34586
1.234	3.30246
1.228	3.27135
1.222	3.23062
1.216	3.24273
1.21	3.13653
1.204	3.18504
1.198	3.15853
1.192	3.14684
1.186	3.181
1.18	3.1807
1.174	3.11033
1.168	3.08869
1.162	3.08333
1.156	3.01998
1.15	3.11949
1.144	3.06133
1.138	3.08275
1.132	3.06999
1.126	3.10174
1.12	3.03418
1.114	3.03668
1.108	3.01747
1.102	3.03853
1.096	3.02886
1.09	3.13087
1.084	3.09911
1.078	3.03046
1.072	3.02392
1.066	3.12961
1.06	3.10584
1.054	3.15413
1.048	3.22595
1.042	3.30156
1.036	3.19793
1.03	3.25166
1.024	3.26487
1.018	3.2799
1.012	3.23196
1.006	3.3288
1	3.306
0.994	3.32273
0.988	3.33913
0.982	3.37287
0.976	3.45739
0.97	3.37695
0.964	3.4496
0.958	3.40315
0.952	3.45645
0.946	3.52218
0.94	3.49284
0.934	3.52946
0.928	3.60321
0.922	3.58568
0.916	3.62507
0.91	3.62737
0.904	3.69492
0.898	3.72037
0.892	3.74363
0.886	3.82246
0.88	3.84053
0.874	3.89528
0.868	3.90657
0.862	3.92816
0.856	4.17543
0.85	4.19541
0.844	4.20129
0.838	4.22354
0.832	4.23223
0.826	4.22547
0.82	4.24216
0.814	4.23743
0.808	4.22933
0.802	4.23005
0.796	4.23029
0.79	4.22229
0.784	4.22334
0.778	4.23591
0.772	4.23883
0.766	4.25311
0.76	4.27396
0.754	4.30023
0.748	4.34227
0.742	4.38267
0.736	4.43303
0.73	4.498
0.724	4.55783
0.718	4.63495
0.712	4.71582
0.706	4.80729
0.7	4.90384
0.694	5.00396
0.688	5.11561
0.682	5.23425
0.676	5.35332
0.67	5.48009
0.664	5.6132
0.658	5.75378
0.652	5.89962
0.646	6.05299
0.64	6.21457
0.634	6.38865
0.628	6.57019
0.622	6.77015
0.616	6.97686
0.61	7.19766
0.604	7.43331
0.598	7.68047
0.592	7.93879
0.586	8.19562
0.58	8.45137
0.574	8.68994
0.568	8.91049
0.562	9.09602
0.556	9.23274
0.55	9.32153
0.544	9.3792
0.538	9.3829
0.532	9.31924
0.526	9.20536
0.52	9.09654
0.514	9.00579
0.508	8.89325
0.502	8.76504
0.496	8.65954
0.49	8.54787
0.484	8.37689
0.478	8.14275
0.472	7.86074
0.466	7.58458
0.46	7.36148
0.454	7.17692
0.448	7.05255
0.442	7.00068
0.436	6.94752
0.43	6.86232
0.424	6.76319
0.418	6.65165
0.412	6.54759
0.406	6.4582
0.4	6.37903
