Name: Unaltered volcanic tuff?
Type: Rock
Class: Igneous
Subclass: Mafic
Particle Size: Whole rock chips
Sample No.: Cup9
Owner: USGS
Origin: Cuprite, Nevada
Description: Unaltered volcanic tuff ???  Dark brown gray
Measurement: Directional Hemispherical Reflectance
X Units: Wavelength (micrometers)
Y Units: Reflectance (percent)
wavelength	value
14.051	2.3896
13.826	2.3896
13.609	2.4514
13.398	2.5647
13.193	2.5544
12.995	2.6574
12.802	2.8325
12.616	2.7707
12.434	2.8222
12.258	3.1621
12.086	3.502
11.92	3.811
11.757	4.0685
11.6	4.2642
11.446	4.9543
11.297	4.841
11.151	4.9543
11.009	5.2839
10.87	5.1706
10.735	5.356
10.604	5.5723
10.475	6.1388
10.35	7.0658
10.227	8.034
10.108	9.1773
9.991	10.2073
9.877	11.2579
9.765	12.0922
9.656	12.9677
9.549	13.0913
9.445	12.6587
9.343	11.7214
9.243	11.4536
9.145	11.2888
9.049	11.2785
8.956	10.7017
8.864	10.1455
8.774	9.2803
8.686	8.3121
8.599	7.1585
8.515	6.2109
8.431	5.0161
8.35	4.12
8.27	3.8831
8.192	3.7904
8.115	3.4402
8.039	3.2136
7.965	3.4093
7.893	3.6256
7.821	3.5329
7.751	3.4814
7.682	3.296
7.614	3.1724
7.548	3.2136
7.483	3.1003
7.418	3.1724
7.355	3.1003
7.293	3.1209
7.232	3.1312
7.172	3.0797
7.113	3.1003
7.055	2.987
6.998	2.8119
6.942	2.8222
6.886	2.7501
6.832	2.7501
6.778	2.8428
6.726	2.9355
6.674	2.987
6.623	2.9767
6.572	3.1003
6.523	3.1106
6.474	3.3784
6.426	3.5432
6.378	3.3784
6.332	3.2136
6.286	2.9355
6.24	2.8016
6.195	2.5956
6.151	2.4514
6.108	2.4205
6.065	2.5029
6.023	2.6986
5.981	2.8737
5.94	3.193
5.899	3.4196
5.859	3.6771
5.82	3.6977
5.781	3.6462
5.743	3.5844
5.705	3.6153
5.667	3.605
5.63	3.5741
5.594	3.6462
5.558	3.7389
5.523	3.9964
5.487	4.2436
5.453	4.5011
5.419	4.5423
5.385	4.2333
5.352	3.8007
5.319	3.7389
5.286	4.0273
5.254	4.6041
5.222	5.5002
5.191	6.3036
5.16	6.8804
5.129	7.1379
5.099	7.2512
5.069	7.1173
5.04	6.901
5.01	7.0246
4.981	7.1379
4.953	7.3851
4.925	8.3018
4.897	9.6305
4.869	10.8459
4.842	11.536
4.815	12.1025
4.788	12.5969
4.762	12.875
4.736	13.0501
4.71	13.2149
4.684	13.39
4.659	13.4415
4.634	13.6372
4.61	14.1419
4.585	14.626
4.561	14.9762
4.537	15.3985
4.513	15.759
4.49	16.1092
4.467	16.3461
4.444	16.5006
4.421	16.5727
4.398	16.7066
4.376	17.304
4.354	17.9735
4.332	18.4782
4.311	19.0962
4.289	19.673
4.268	19.9511
4.247	20.2189
4.226	20.5176
4.206	20.4455
4.185	20.5176
4.165	20.6515
4.145	20.7442
4.126	20.8678
4.106	20.9502
4.086	20.9605
4.067	21.0429
4.048	20.7957
4.029	20.5588
4.011	19.7451
3.992	18.7151
3.974	18.4988
3.956	18.643
3.938	19.6524
3.92	19.9923
3.902	19.9717
3.884	20.0129
3.867	20.0953
3.85	20.0026
3.833	20.1365
3.816	20.291
3.799	20.2189
3.782	20.3322
3.766	20.291
3.75	20.085
3.733	19.982
3.717	19.6936
3.702	19.6112
3.686	19.3125
3.67	19.3125
3.655	19.1065
3.639	18.9417
3.624	18.6636
3.609	18.2722
3.594	18.1589
3.579	17.7778
3.564	17.5409
3.549	17.2113
3.535	16.8611
3.521	16.3152
3.506	15.7487
3.492	15.4191
3.478	15.0071
3.464	14.832
3.45	14.6157
3.437	14.42
3.423	14.0595
3.409	13.6063
3.396	13.4724
3.383	13.1531
3.37	12.7926
3.357	12.566
3.344	12.4321
3.331	12.36
3.318	12.051
3.305	11.7214
3.293	11.4845
3.28	11.1549
3.268	10.815
3.255	10.3515
3.243	10.0837
3.231	9.7953
3.219	9.5996
3.207	9.1773
3.195	8.8065
3.183	8.6005
3.172	8.2091
3.16	8.1473
3.149	7.6735
3.137	7.4572
3.126	7.3233
3.115	7.0555
3.103	6.8598
3.092	6.8804
3.081	6.4993
3.07	6.4066
3.06	6.283
3.049	6.2624
3.038	6.1491
3.027	6.0873
3.017	5.8195
3.006	5.7989
2.996	5.7474
2.986	5.562
2.975	5.4384
2.965	5.3972
2.955	5.3663
2.945	5.1809
2.935	5.0573
2.925	5.356
2.915	5.3766
2.905	5.4178
2.896	5.4487
2.886	5.5208
2.876	5.8298
2.867	5.5517
2.857	5.7474
2.848	6.1079
2.838	5.9122
2.829	6.0049
2.82	5.8298
2.811	6.0255
2.802	5.9225
2.793	6.0976
2.784	5.5929
2.775	5.4899
2.766	5.5723
2.757	5.5517
2.748	6.2315
2.74	6.695
2.731	8.0958
2.722	9.6305
2.714	11.4433
2.705	11.9377
2.697	15.0895
2.688	18.54
2.68	20.3631
2.672	20.8575
2.664	21.5785
2.655	21.8566
2.647	21.8978
2.639	21.8875
2.631	21.9493
2.623	22.0935
2.615	21.9802
2.607	21.9802
2.599	21.8154
2.592	22.1038
2.584	22.1553
2.576	22.4025
2.569	21.7639
2.561	22.0111
2.553	22.0832
2.546	21.8669
2.538	22.6188
2.531	22.1553
2.524	22.3922
2.516	22.1244
2.509	21.8463
2.502	22.0214
2.484	22.3628
2.46	22.9251
2.436	22.9403
2.412	22.877
2.388	22.8019
2.364	23.1084
2.34	22.9027
2.316	22.9625
2.292	23.0976
2.268	23.0107
2.244	22.9229
2.22	22.9238
2.196	23.0705
2.172	23.269
2.148	23.2452
2.124	23.0313
2.1	22.6227
2.076	22.6362
2.052	22.6692
2.028	22.5853
2.004	22.5116
1.98	22.4106
1.956	22.2754
1.932	21.9768
1.908	21.4697
1.884	22.1625
1.86	22.17
1.836	22.1277
1.812	22.0717
1.788	22.1665
1.764	22.073
1.74	22.0859
1.716	22.0676
1.692	22.0155
1.668	21.9445
1.644	21.9246
1.62	21.7962
1.596	21.7489
1.572	21.7311
1.548	21.6524
1.524	21.6536
1.5	21.5789
1.476	21.5326
1.452	21.5206
1.428	21.376
1.404	21.4079
1.38	21.4934
1.356	21.387
1.332	21.5279
1.308	21.5927
1.284	21.6061
1.26	21.6173
1.236	21.53
1.212	21.5622
1.188	21.5481
1.164	21.5327
1.14	21.5132
1.116	21.3805
1.092	21.3476
1.068	21.237
1.044	21.1244
1.02	20.9367
0.996	20.7744
0.972	20.5564
0.948	20.334
0.924	20.0729
0.9	20.3258
0.876	20.3874
0.852	20.0233
0.828	19.9829
0.804	19.8973
0.78	19.6553
0.756	19.4644
0.732	19.0782
0.708	18.6023
0.684	18.0719
0.66	17.3864
0.636	16.7354
0.612	16.0304
0.588	14.8932
0.564	13.344
0.54	12.0615
0.516	11.2726
0.492	10.6473
0.468	10.2369
0.444	9.7232
0.42	9.072
