Name: Altered volcanic tuff
Type: Rock
Class: Igneous
Subclass: Felsic
Particle Size: Whole rock chips
Sample No.: Cup2
Owner: USGS
Origin: Cuprite, Nevada
Description: Altered volcanic tuff, reddish brown and tan
Measurement: Directional Hemispherical Reflectance
X Units: Wavelength (micrometers)
Y Units: Reflectance (percent)
wavelength	value
14.051	2.678
13.826	2.9149
13.609	3.0179
13.398	3.09
13.193	3.2342
12.995	3.6359
12.802	3.9552
12.616	3.5947
12.434	2.9561
12.258	2.5132
12.086	3.2033
11.92	3.605
11.757	3.9655
11.6	4.2333
11.446	4.5011
11.297	4.8101
11.151	5.0058
11.009	5.2839
10.87	5.4899
10.735	5.6753
10.604	5.9019
10.475	6.3345
10.35	6.9525
10.227	7.6529
10.108	8.3739
9.991	9.3524
9.877	10.3206
9.765	10.7841
9.656	11.6184
9.549	11.8038
9.445	12.1437
9.343	12.7617
9.243	13.5342
9.145	14.008
9.049	13.9771
8.956	13.7402
8.864	13.5342
8.774	13.2767
8.686	12.8441
8.599	11.948
8.515	11.7008
8.431	10.609
8.35	9.0743
8.27	8.8271
8.192	8.2915
8.115	6.9422
8.039	5.5311
7.965	4.6144
7.893	4.0891
7.821	3.4608
7.751	3.0385
7.682	2.7604
7.614	2.5441
7.548	2.4102
7.483	2.3793
7.418	2.2866
7.355	2.2763
7.293	2.2763
7.232	2.3278
7.172	2.3793
7.113	2.3793
7.055	2.3381
6.998	2.4102
6.942	2.472
6.886	2.4926
6.832	2.5132
6.778	2.5441
6.726	2.6574
6.674	2.8428
6.623	2.8119
6.572	2.8531
6.523	2.9149
6.474	3.1518
6.426	3.09
6.378	3.1827
6.332	2.9355
6.286	2.7604
6.24	2.6265
6.195	2.5235
6.151	2.5029
6.108	2.5647
6.065	2.5338
6.023	2.781
5.981	2.9973
5.94	3.1518
5.899	3.4608
5.859	3.6771
5.82	3.8831
5.781	3.8419
5.743	3.8831
5.705	3.9758
5.667	3.9449
5.63	3.8316
5.594	3.8213
5.558	3.9243
5.523	4.017
5.487	4.2024
5.453	4.4187
5.419	4.3775
5.385	4.0067
5.352	3.6874
5.319	3.6874
5.286	3.9243
5.254	4.326
5.222	5.0058
5.191	5.5723
5.16	5.8092
5.129	5.9122
5.099	6.0461
5.069	5.9225
5.04	5.7886
5.01	5.9019
4.981	6.0873
4.953	6.6229
4.925	7.3542
4.897	8.6005
4.869	9.9498
4.842	10.8562
4.815	11.4948
4.788	11.9686
4.762	12.3291
4.736	12.6278
4.71	12.8029
4.684	12.8029
4.659	13.0295
4.634	13.4106
4.61	13.9771
4.585	14.4303
4.561	14.8938
4.537	15.141
4.513	15.1513
4.49	15.141
4.467	15.2749
4.444	15.5839
4.421	15.8208
4.398	16.1813
4.376	16.789
4.354	17.4379
4.332	17.9735
4.311	18.6739
4.289	19.1374
4.268	19.7039
4.247	20.1983
4.226	20.6
4.206	20.5176
4.185	20.703
4.165	21.1253
4.145	21.7742
4.126	22.3304
4.106	22.9484
4.086	23.4943
4.067	24.102
4.048	24.2977
4.029	24.7921
4.011	24.9775
3.992	25.1011
3.974	25.1629
3.956	25.3586
3.938	25.5028
3.92	25.3483
3.902	25.2968
3.884	25.1938
3.867	24.9672
3.85	24.9569
3.833	24.8127
3.816	24.6376
3.799	24.3698
3.782	24.2256
3.766	23.793
3.75	23.2677
3.733	22.9072
3.717	22.6806
3.702	22.351
3.686	21.8463
3.67	21.8051
3.655	21.2489
3.639	20.9502
3.624	20.3631
3.609	19.9511
3.594	19.3537
3.579	18.8902
3.564	18.3031
3.549	18.0147
3.535	17.3452
3.521	16.7581
3.506	15.9341
3.492	15.6766
3.478	15.3367
3.464	14.8732
3.45	14.3582
3.437	13.905
3.423	13.2973
3.409	12.7823
3.396	12.7823
3.383	12.1849
3.37	12.0407
3.357	11.742
3.344	11.536
3.331	11.2579
3.318	10.9798
3.305	10.5987
3.293	10.3618
3.28	10.0734
3.268	9.7129
3.255	9.5275
3.243	9.2906
3.231	9.2494
3.219	8.858
3.207	8.6314
3.195	8.4975
3.183	8.2091
3.172	8.1782
3.16	7.725
3.149	7.5602
3.137	7.4984
3.126	7.1482
3.115	6.9525
3.103	6.9731
3.092	6.7671
3.081	6.6332
3.07	6.6126
3.06	6.4169
3.049	6.3654
3.038	6.3345
3.027	6.2521
3.017	5.9431
3.006	5.9843
2.996	5.9637
2.986	5.871
2.975	5.6753
2.965	5.6959
2.955	5.7062
2.945	5.665
2.935	5.4075
2.925	5.7268
2.915	5.6547
2.905	5.6547
2.896	5.6032
2.886	5.8504
2.876	6.1285
2.867	6.0667
2.857	6.0873
2.848	6.0152
2.838	6.1079
2.829	6.489
2.82	6.3963
2.811	6.2212
2.802	6.3139
2.793	6.4581
2.784	6.3654
2.775	6.1182
2.766	5.0367
2.757	5.2942
2.748	5.9946
2.74	5.2324
2.731	5.8092
2.722	5.8916
2.714	5.7371
2.705	4.7998
2.697	9.5893
2.688	16.5521
2.68	22.1347
2.672	25.6882
2.664	29.1387
2.655	31.2502
2.647	32.6613
2.639	33.8458
2.631	35.1642
2.623	35.5762
2.615	36.2663
2.607	36.2869
2.599	36.8122
2.592	37.5435
2.584	37.3169
2.576	37.9143
2.569	38.0173
2.561	37.9967
2.553	38.9134
2.546	38.3469
2.538	38.5941
2.531	38.8825
2.524	39.2739
2.516	39.7065
2.509	39.861
2.502	40.3451
2.484	40.848
2.46	42.1303
2.436	44.4975
2.412	46.0279
2.388	46.8712
2.364	48.1393
2.34	49.2135
2.316	49.722
2.292	50.3888
2.268	51.1993
2.244	51.0031
2.22	49.7011
2.196	49.9223
2.172	51.4591
2.148	53.8995
2.124	55.1211
2.1	54.7677
2.076	54.9683
2.052	54.9505
2.028	54.4878
2.004	53.5726
1.98	52.2858
1.956	50.9811
1.932	49.4212
1.908	49.2641
1.884	55.4375
1.86	58.1788
1.836	58.4724
1.812	58.4187
1.788	58.6798
1.764	58.7718
1.74	59.0847
1.716	59.3056
1.692	59.3964
1.668	59.4352
1.644	59.5104
1.62	59.4711
1.596	59.4339
1.572	59.3471
1.548	59.1098
1.524	58.8414
1.5	58.4171
1.476	57.8396
1.452	57.4633
1.428	56.5528
1.404	55.7476
1.38	58.1649
1.356	58.6788
1.332	59.3287
1.308	59.3049
1.284	59.2789
1.26	58.987
1.236	58.6347
1.212	58.2771
1.188	57.6734
1.164	56.8962
1.14	55.8938
1.116	54.6774
1.092	53.3404
1.068	51.6669
1.044	49.7603
1.02	47.3841
0.996	44.3872
0.972	40.9757
0.948	37.8653
0.924	35.2781
0.9	34.001
0.876	33.2109
0.852	32.8473
0.828	33.239
0.804	34.4896
0.78	35.9256
0.756	37.1556
0.732	36.9074
0.708	35.0405
0.684	32.4687
0.66	30.2712
0.636	28.6444
0.612	26.6293
0.588	22.1927
0.564	16.7037
0.54	13.7731
0.516	12.8357
0.492	12.2948
0.468	11.917
0.444	11.293
0.42	10.746
