Name: Altered volcanic tuff
Type: Rock
Class: Igneous
Subclass: Felsic
Particle Size: Whole rock chips
Sample No.: Cup4
Owner: USGS
Origin: Cuprite, Nevada
Description: Altered volcanic tuff, white to very lt grey
Measurement: Directional Hemispherical Reflectance
X Units: Wavelength (micrometers)
Y Units: Reflectance (percent)
wavelength	value
0.4	27.8452
0.424	29.5737
0.448	31.7643
0.472	33.2564
0.496	34.5792
0.52	36.2835
0.544	38.6463
0.568	42.1279
0.592	44.7556
0.616	46.1542
0.64	47.0667
0.664	47.8522
0.688	48.6643
0.712	49.3896
0.736	49.9773
0.76	50.3992
0.784	50.7597
0.808	51.2063
0.832	51.5921
0.856	51.8603
0.88	52.03
0.904	52.3099
0.928	52.2877
0.952	52.337
0.976	52.7003
1	53.0114
1.024	53.9584
1.048	54.6653
1.072	55.146
1.096	55.4891
1.12	55.7442
1.144	55.1683
1.168	55.202
1.192	55.5112
1.216	55.6221
1.24	55.0482
1.264	54.0331
1.288	55.4356
1.312	55.2993
1.336	53.3893
1.36	51.8107
1.384	46.5389
1.408	40.6584
1.432	38.156
1.456	40.1862
1.48	36.3482
1.504	44.1161
1.528	46.4893
1.552	47.6127
1.576	48.3142
1.6	48.6049
1.624	48.8334
1.648	48.8602
1.672	48.5741
1.696	47.9848
1.72	46.7713
1.744	43.2023
1.768	40.597
1.792	43.7905
1.816	45.5803
1.84	45.0729
1.864	42.8646
1.888	33.6751
1.912	26.0927
1.936	28.0903
1.96	29.1295
1.984	30.4341
2.008	30.8036
2.032	31.6399
2.056	31.3306
2.08	30.9423
2.104	29.4017
2.128	26.0343
2.152	23.0266
2.176	21.8171
2.2	22.9748
2.224	24.9491
2.248	28.0436
2.272	28.0096
2.296	27.5987
2.32	24.2809
2.344	26.5224
2.368	26.3022
2.392	21.4679
2.416	18.9627
2.44	16.369
2.464	15.8192
2.488	15.4377
2.504	14.1625
2.511	12.8956
2.519	12.6587
2.526	13.4518
2.533	14.2964
2.541	14.111
2.548	14.5642
2.556	14.8938
2.563	14.1007
2.571	14.0183
2.579	13.8638
2.586	13.7505
2.594	14.5848
2.602	14.3479
2.61	14.1934
2.618	14.0286
2.626	14.1625
2.634	13.4312
2.642	13.5548
2.65	12.2982
2.658	11.9892
2.666	10.3515
2.675	9.0743
2.683	8.0649
2.691	6.3345
2.7	5.0161
2.708	3.9964
2.717	3.4196
2.725	3.4505
2.734	3.1518
2.742	3.2136
2.751	3.193
2.76	3.0591
2.769	2.9355
2.778	2.8428
2.787	2.7398
2.796	2.8222
2.805	2.6368
2.814	2.3793
2.823	2.472
2.832	2.472
2.842	2.9973
2.851	2.6986
2.86	3.4093
2.87	3.8728
2.879	2.8325
2.889	2.781
2.899	2.7192
2.909	2.4926
2.918	2.5441
2.928	2.781
2.938	2.369
2.948	2.369
2.958	2.7398
2.968	2.5956
2.979	2.6368
2.989	2.5544
2.999	2.5956
3.01	2.7913
3.02	2.6059
3.031	2.5235
3.042	2.5647
3.052	2.5853
3.063	2.7089
3.074	2.4926
3.085	2.7192
3.096	2.6986
3.107	2.7913
3.118	2.8428
3.13	2.9561
3.141	3.0179
3.152	2.8943
3.164	3.193
3.176	3.193
3.187	3.296
3.199	3.2754
3.211	3.2445
3.223	3.4711
3.235	3.4711
3.247	3.3166
3.259	3.4814
3.272	3.5844
3.284	3.5432
3.297	3.7492
3.309	3.6462
3.322	3.8625
3.335	3.8522
3.348	3.7801
3.361	3.811
3.374	3.8007
3.387	3.8522
3.401	3.6977
3.414	3.8522
3.428	3.6977
3.441	4.0994
3.455	4.2539
3.469	4.3466
3.483	4.3466
3.497	4.5423
3.511	4.5732
3.525	4.9234
3.54	5.1397
3.554	5.3354
3.569	5.4796
3.584	5.6753
3.599	5.7268
3.614	5.9019
3.629	6.077
3.644	6.2521
3.66	6.3448
3.675	6.4684
3.691	6.6126
3.707	6.8495
3.723	6.9319
3.739	7.1276
3.755	7.2512
3.771	7.3748
3.788	7.4675
3.805	7.3954
3.822	7.5396
3.838	7.5602
3.856	7.4984
3.873	7.3336
3.89	7.4572
3.908	7.6426
3.926	7.5602
3.944	7.5705
3.962	7.3439
3.98	7.2409
3.998	7.1894
4.017	7.2718
4.036	7.3233
4.055	7.0864
4.074	7.0761
4.093	6.8804
4.112	6.8598
4.132	6.6229
4.152	6.592
4.172	6.5302
4.192	6.386
4.213	6.3551
4.233	6.0873
4.254	5.7474
4.275	5.5002
4.296	5.356
4.318	4.9955
4.34	4.7689
4.361	4.635
4.384	4.5423
4.406	4.635
4.428	4.5629
4.451	4.4599
4.474	4.4393
4.498	4.3569
4.521	4.3569
4.545	4.2539
4.569	4.1612
4.593	4.2127
4.618	4.0994
4.643	4.2436
4.668	4.2127
4.693	4.1818
4.719	4.0376
4.744	4.2642
4.771	4.6556
4.797	4.8101
4.824	4.5629
4.851	4.1921
4.878	4.0376
4.906	3.8213
4.934	3.5329
4.962	3.5226
4.991	3.3681
5.02	3.3681
5.049	3.3269
5.079	3.3475
5.109	3.3681
5.139	3.3681
5.17	3.3166
5.201	3.1209
5.233	2.884
5.265	2.7913
5.297	2.6677
5.33	2.575
5.363	2.6059
5.396	2.7501
5.43	2.6986
5.464	2.8119
5.499	2.7501
5.534	2.7192
5.57	2.6574
5.606	2.6986
5.643	2.6162
5.68	2.5544
5.717	2.4308
5.755	2.3175
5.794	2.2866
5.833	2.2557
5.873	2.0497
5.913	1.9158
5.954	1.8849
5.995	1.7098
6.037	1.7407
6.079	1.5759
6.122	1.648
6.166	1.6789
6.21	1.6068
6.255	1.8231
6.301	1.7304
6.347	1.8128
6.394	1.8128
6.442	1.8231
6.49	1.7201
6.539	1.6377
6.589	1.6686
6.64	1.5862
6.691	1.4317
6.743	1.3493
6.796	1.2772
6.85	1.2257
6.905	1.1845
6.96	1.1124
7.017	1.0609
7.074	1.1433
7.133	1.0506
7.192	0.9991
7.252	0.9991
7.314	1.03
7.376	1.0197
7.44	1.1124
7.504	1.1948
7.57	1.4523
7.637	1.9364
7.705	2.8222
7.774	4.4496
7.845	7.1791
7.917	10.0837
7.99	11.1549
8.064	10.9798
8.14	10.7738
8.218	10.9077
8.297	11.2888
8.377	12.2261
8.459	13.7402
8.543	16.3255
8.628	16.7375
8.715	19.9202
8.804	22.7115
8.894	24.7921
8.987	25.1629
9.081	22.8248
9.178	20.1262
9.276	17.5203
9.377	14.6672
9.479	12.8956
9.585	11.5257
9.692	10.5678
9.802	9.2391
9.914	8.137
10.029	7.1585
10.147	6.489
10.268	5.8092
10.391	5.5208
10.518	5.1397
10.647	4.9028
10.78	4.7277
10.916	4.6041
11.056	4.3569
11.199	4.1303
11.346	4.0685
11.497	3.6462
11.652	3.3578
11.811	3.0282
11.975	2.8016
12.143	2.7501
12.316	2.7707
12.494	3.1621
12.677	3.6359
12.866	3.5638
13.06	3.2548
13.261	3.0591
13.467	3.1312
13.68	3.502
13.9	4.1715
