Name: Anhydrite CaSO4
Type: Mineral
Class: Sulfate
Subclass: None
Particle Size: Unsieved coarse powder
Sample No.: None
Owner: Synthetic sample from D. Robie, USGS
Origin: USGS
Description: Synthetic Anhydrite
Measurement: Directional Hemispherical Reflectance
X Units: Wavelength (micrometers)
Y Units: Reflectance (percent)
wavelength	value
0.4	62.446
0.414	62.5436
0.428	62.6232
0.442	62.8832
0.456	63.1216
0.47	63.2192
0.484	63.2168
0.498	63.2559
0.512	63.319
0.526	63.3887
0.54	63.4136
0.554	63.427
0.568	63.3996
0.582	63.4094
0.596	63.4435
0.61	63.456
0.624	63.4193
0.638	63.457
0.652	63.3925
0.666	63.3818
0.68	63.3138
0.694	63.24
0.708	63.2028
0.722	63.152
0.736	63.1206
0.75	63.05
0.764	62.9908
0.778	62.9716
0.792	62.8807
0.806	62.8666
0.82	62.8695
0.834	62.8398
0.848	62.9308
0.862	62.9497
0.876	63.3909
0.89	63.238
0.904	63.4842
0.918	63.6461
0.932	63.8132
0.946	63.9981
0.96	64.1707
0.974	64.3982
0.988	64.4289
1.002	64.5918
1.016	64.5482
1.03	64.6994
1.044	64.7058
1.058	65.0045
1.072	64.953
1.086	65.2571
1.1	65.2141
1.114	65.2755
1.128	65.2796
1.142	65.4388
1.156	65.474
1.17	65.7
1.184	65.6371
1.198	65.7676
1.212	65.8896
1.226	65.7242
1.24	65.6871
1.254	65.9229
1.268	66.0187
1.282	65.9683
1.296	66.1511
1.31	66.0811
1.324	65.9172
1.338	66.1118
1.352	66.1831
1.366	66.2121
1.38	66.3188
1.394	66.2206
1.408	66.2068
1.422	66.0277
1.436	65.9948
1.45	65.9174
1.464	66.1236
1.478	65.9037
1.492	66.2376
1.506	66.255
1.52	66.4557
1.534	66.4941
1.548	66.7134
1.562	66.6421
1.576	66.6791
1.59	66.7174
1.604	66.8354
1.618	66.7571
1.632	66.9359
1.646	67.0954
1.66	67.1405
1.674	67.0985
1.688	67.312
1.702	67.3975
1.716	67.4087
1.73	67.3942
1.744	67.3787
1.758	67.3741
1.772	67.3767
1.786	67.3354
1.8	67.4204
1.814	67.5564
1.828	67.6865
1.842	67.5812
1.856	67.7239
1.87	67.7033
1.884	67.629
1.898	67.0526
1.912	66.4255
1.926	65.6959
1.94	65.0777
1.954	64.9163
1.968	65.6535
1.982	66.0004
1.996	66.5788
2.01	67.5571
2.024	68.0732
2.038	68.7665
2.052	69.071
2.066	69.3202
2.08	69.638
2.094	69.9244
2.108	70.0245
2.122	70.4826
2.136	70.7218
2.15	70.7176
2.164	70.2834
2.178	69.9131
2.192	69.2244
2.206	68.8676
2.22	68.7916
2.234	68.8627
2.248	68.8634
2.262	68.9708
2.276	69.3198
2.29	69.5714
2.304	69.879
2.318	70.1629
2.332	70.2216
2.346	70.3495
2.36	70.4423
2.374	70.5268
2.388	70.5251
2.402	70.3368
2.416	69.8485
2.43	69.9447
2.444	69.7804
2.458	69.3449
2.472	69.4748
2.486	68.9795
2.5	69.2572
2.509	69.216
2.517	69.1851
2.526	69.2675
2.535	69.2984
2.543	69.2675
2.552	69.2984
2.561	69.8134
2.57	69.5662
2.579	69.216
2.588	69.8134
2.597	69.731
2.606	70.2254
2.615	69.8443
2.624	69.2263
2.634	69.5765
2.643	68.8967
2.653	68.8143
2.662	68.4847
2.672	68.495
2.681	67.3105
2.691	66.0745
2.701	64.4162
2.711	63.0463
2.721	60.7288
2.731	56.7942
2.741	54.2089
2.751	49.2443
2.761	44.0737
2.772	41.4575
2.782	38.6868
2.793	36.1221
2.803	34.0827
2.814	32.1257
2.825	30.9515
2.835	29.5713
2.846	28.3868
2.857	27.0787
2.868	26.0281
2.879	24.9981
2.891	23.7621
2.902	23.0411
2.913	21.836
2.925	20.806
2.937	20.7339
2.948	20.8369
2.96	21.6403
2.972	22.6394
2.984	23.9063
2.996	24.9054
3.008	26.1929
3.02	27.5834
3.033	28.3147
3.045	28.5722
3.058	28.2941
3.07	27.4186
3.083	28.0469
3.096	30.7867
3.109	33.8355
3.122	35.9779
3.135	36.5959
3.149	36.7607
3.162	35.1436
3.176	32.7231
3.189	35.3805
3.203	43.3321
3.217	46.3397
3.231	47.9465
3.245	49.3061
3.259	50.3155
3.274	51.2322
3.288	51.5721
3.303	52.5506
3.318	53.354
3.333	53.8381
3.348	53.8278
3.363	53.5394
3.378	53.0759
3.394	53.148
3.409	52.6124
3.425	53.0038
3.441	54.5694
3.457	54.8578
3.473	54.5076
3.49	53.972
3.506	54.1574
3.523	57.2062
3.54	58.8954
3.557	60.1932
3.574	61.3674
3.591	61.4498
3.609	60.5125
3.626	58.8851
3.644	57.783
3.662	59.8121
3.68	58.8748
3.699	59.122
3.717	61.4704
3.736	60.8009
3.755	58.5658
3.774	52.6639
3.794	47.0504
3.813	54.5179
3.833	56.4646
3.853	54.6724
3.873	52.1592
3.893	48.8735
3.914	45.7526
3.935	45.3921
3.956	44.084
3.977	41.2412
3.998	38.4705
4.02	36.1324
4.042	34.1445
4.064	31.7343
4.086	28.8606
4.109	26.2547
4.132	22.9999
4.155	17.9941
4.179	9.6511
4.202	8.0752
4.226	9.0949
4.251	6.2624
4.275	4.635
4.3	4.6247
4.325	4.2024
4.35	3.5741
4.376	3.6668
4.402	3.8625
4.428	3.1209
4.455	2.5647
4.482	2.7501
4.509	3.1724
4.537	3.3372
4.565	3.6771
4.593	2.987
4.622	2.6986
4.651	2.0497
4.68	1.9364
4.71	2.8016
4.74	8.5284
4.771	14.2655
4.802	20.4249
4.833	24.1947
4.865	26.6667
4.897	27.0169
4.929	20.806
4.962	30.4468
4.996	32.9291
5.03	35.0715
5.064	36.4723
5.099	38.9237
5.134	42.2918
5.17	42.5493
5.206	40.9322
5.243	37.9864
5.281	36.9976
5.319	36.4002
5.357	35.2466
5.396	31.4768
5.436	25.6676
5.476	23.4325
5.517	20.8678
5.558	19.3125
5.6	21.8257
5.643	24.0196
5.686	17.5409
5.73	15.9444
5.775	12.7617
5.82	17.9529
5.866	13.2664
5.913	11.2991
5.96	12.6896
6.009	9.3009
6.058	7.4984
6.108	4.1097
6.159	2.9664
6.21	6.798
6.263	11.2888
6.316	9.8262
6.37	9.1361
6.426	6.3654
6.482	5.562
6.539	8.0649
6.597	11.5154
6.657	10.8047
6.717	8.6005
6.778	7.0967
6.841	5.6135
6.905	3.9655
6.97	2.8325
7.036	2.2248
7.103	1.854
7.172	1.5141
7.242	1.1124
7.314	0.9373
7.387	0.7004
7.461	0.5871
7.537	0.412
7.614	0.3399
7.694	0.2575
7.774	0.3914
7.857	0.7622
7.941	2.4926
8.027	7.4778
8.115	15.0895
8.205	19.1992
8.297	34.9891
8.391	35.2466
8.487	35.1745
8.585	35.432
8.686	32.8673
8.789	24.5037
8.894	20.1468
9.002	16.995
9.113	13.5754
9.226	8.6932
9.343	7.3748
9.462	6.6023
9.585	5.9122
9.71	5.5105
9.839	4.6762
9.972	4.9955
10.108	5.1912
10.247	5.0779
10.391	5.0985
10.539	5.2221
10.691	5.6032
10.848	5.2942
11.009	4.9337
11.175	4.7586
11.346	5.2221
11.522	5.871
11.704	5.7165
11.892	5.5723
12.086	5.8813
12.287	6.5302
12.494	6.5817
12.708	5.0264
12.93	4.1097
13.16	3.5226
13.398	2.9561
13.644	2.6471
13.9	1.8643
