Name: Limestone CaCO3
Type: Rock
Class: Sedimentary
Subclass: Limestone
Particle Size: Whole rock chips
Sample No.: ro363
Owner: Larry Rowan, USGS
Origin: Ronda, Spain
Description: white limestone
Measurement: Reflectance
X Units: Wavelength (micrometers)
Y Units: Reflectance (percent)
wavelength	value
0.4	57.9
0.408	58.2
0.416	57.9
0.424	58.7
0.432	59.2
0.44	59.7
0.448	59.3
0.456	59.8
0.464	60
0.472	59.3
0.48	59.6
0.488	59.5
0.496	60.4
0.504	60.2
0.512	59.7
0.52	60.4
0.528	60.4
0.536	60.6
0.544	60
0.552	60.2
0.56	60.7
0.568	60.7
0.576	60.8
0.584	60.6
0.592	60.8
0.6	60.6
0.608	60.1
0.616	60.1
0.624	59.7
0.632	60.4
0.64	60.3
0.648	60.8
0.656	60.4
0.664	60.7
0.672	60.3
0.68	60.9
0.688	60.6
0.696	60.8
0.704	60.8
0.712	60.8
0.72	60.8
0.728	60.9
0.736	60.9
0.744	60.8
0.752	60.9
0.76	61.1
0.768	61.1
0.776	60.9
0.784	60.8
0.792	61.4
0.8	60.8
0.832	61.2
0.864	61.4
0.896	61.5
0.928	61.7
0.96	61.7
0.992	61.9
1.024	62.1
1.056	62.8
1.088	63.2
1.12	62.9
1.152	63
1.184	63.6
1.216	63.2
1.248	63.1
1.28	63.5
1.312	63
1.344	62.8
1.376	60.9
1.408	57.3
1.44	56
1.472	56.4
1.504	58.5
1.536	59.6
1.568	60.2
1.6	60.8
1.632	60.2
1.664	60.4
1.696	59.5
1.728	57.9
1.76	58
1.792	58
1.824	55.2
1.856	49.1
1.888	46.3
1.92	42.7
1.952	42.1
1.984	41.8
2.016	48.2
2.048	50.8
2.08	51.5
2.102	52.59
2.109	51.3
2.116	51.4
2.123	50.2
2.13	49.59
2.137	49.1
2.144	45.88
2.151	44.36
2.158	44.35
2.165	45.13
2.173	46.93
2.18	47.26
2.187	48.1
2.195	48.06
2.202	47.15
2.21	45.9
2.217	44.7
2.225	43.14
2.232	41.29
2.24	39.31
2.248	36.9
2.256	34.65
2.264	32.53
2.272	30.3
2.28	27.56
2.288	25.43
2.296	24.35
2.304	23.44
2.312	23.19
2.32	21.7
2.329	19.95
2.337	19.14
2.346	19.74
2.354	22.62
2.363	27.31
2.371	31.47
2.38	35.63
2.389	37.09
2.398	36.91
2.406	36.3
2.415	35.82
2.424	33.49
2.434	31.23
2.443	28.72
2.452	26.06
2.461	23.28
2.471	20.83
2.48	18.64
2.49	17.64
2.499	17.21
2.509	16.69
2.519	15.35
2.528	13.88
2.538	14.02
2.548	16.32
2.558	20.49
2.569	24.84
2.579	27.53
2.589	30.36
2.599	32.9
2.61	34.54
2.62	35.01
2.631	35.22
2.642	35.01
2.653	34.05
2.664	32.71
2.675	31.07
2.686	28.9
2.697	25
2.708	21.48
2.719	18.5
2.731	16.52
2.742	15.02
2.754	13.89
2.766	12.4
2.778	11.25
2.79	10.68
2.802	10.93
2.814	11.13
2.826	11.05
2.838	10.85
2.851	10.66
2.864	10.47
2.876	10.24
2.889	10.18
2.902	9.92
2.915	9.9
2.928	9.65
2.942	9.6
2.955	9.68
2.968	9.64
2.982	9.66
2.996	9.74
3.01	9.77
3.024	9.59
3.038	9.68
3.052	9.68
3.067	9.58
3.081	9.48
3.096	9.22
3.111	9.09
3.126	9.38
3.141	9.52
3.156	9.56
3.172	10.15
3.187	10.5
3.203	10.47
3.219	10.28
3.235	10.17
3.251	9.91
3.268	9.58
3.284	9.23
3.301	8.51
3.318	7.71
3.335	6.13
3.352	5.01
3.37	5.33
3.387	5.33
3.405	5.45
3.423	5.46
3.441	5.39
3.46	5.08
3.478	4.71
3.497	5.02
3.516	5.65
3.535	7.01
3.554	8.02
3.574	8.52
3.594	9.96
3.614	10.87
3.634	11.24
3.655	11.57
3.675	11.78
3.696	11.56
3.717	11.24
3.739	10.46
3.761	9.71
3.782	8.38
3.805	6.27
3.827	5.43
3.85	5.06
3.873	4.96
3.896	4.9
3.92	4.67
3.944	4.14
3.968	3.83
3.992	4.27
4.017	4.99
4.042	6.11
4.067	6.98
4.093	7.74
4.119	8.42
4.145	9.09
4.172	9.55
4.199	9.92
4.226	10.05
4.254	9.97
4.282	9.95
4.311	9.85
4.34	9.92
4.369	10.44
4.398	10.3
4.428	9.81
4.459	9.02
4.49	8.26
4.521	7.97
4.553	7.84
4.585	7.74
4.618	7.05
4.651	5.98
4.684	5.96
4.719	7.26
4.753	8.49
4.788	8.86
4.824	8.76
4.86	8.65
4.897	8.53
4.934	8.36
4.972	8.36
5.01	8.25
5.049	8.16
5.089	6.46
5.129	7.45
5.17	7.14
5.212	6.73
5.254	6.28
5.297	5.7
5.341	5.19
5.385	4.53
5.43	3.9
5.476	3.33
5.523	2.53
5.57	2.12
5.618	2.73
5.667	2.5
5.717	2.26
5.768	2.08
5.82	2.04
5.873	1.85
5.926	1.66
5.981	1.43
6.037	1.29
6.094	1.27
6.151	1.38
6.21	2.01
6.27	3.87
6.332	8.46
6.394	21.2
6.458	42.57
6.523	44.26
6.589	41.6
6.657	38.29
6.726	34.16
6.796	30.95
6.868	28.71
6.942	26.67
7.017	26.21
7.094	23.49
7.172	16.63
7.252	13.06
7.334	11.56
7.418	10.67
7.504	9.91
7.592	9.39
7.682	9.43
7.774	9.14
7.869	8.98
7.965	8.78
8.064	8.58
8.166	8.4
8.27	8.18
8.377	7.66
8.487	7.33
8.599	7.38
8.715	7.94
8.834	8.26
8.956	8.49
9.081	8.38
9.21	7.16
9.343	7.9
9.479	8.05
9.62	7.67
9.765	6.96
9.914	6.82
10.068	7.04
10.227	7.07
10.391	7.16
10.56	6.74
10.735	6.88
10.916	7.79
11.103	8.18
11.297	22.9
11.497	8.83
11.704	6.99
11.92	7.12
12.143	6.84
12.375	6.5
12.616	6.12
12.866	5.81
13.126	6.02
13.398	5.89
13.68	4.56
13.975	4.41
