Name: Altered volcanic tuff
Type: Rock
Class: Igneous
Subclass: Felsic
Particle Size: Whole rock chips
Sample No.: Cup8
Owner: USGS
Origin: Cuprite, Nevada
Description: Altered volcanic tuff, white to light grey
Measurement: Directional Hemispherical Reflectance
X Units: Wavelength (micrometers)
Y Units: Reflectance (percent)
wavelength	value
0.4	30.1662
0.424	32.6015
0.448	34.8362
0.472	36.2003
0.496	37.3824
0.52	38.7081
0.544	39.943
0.568	40.9886
0.592	41.7458
0.616	42.2018
0.64	42.5213
0.664	42.8344
0.688	43.1025
0.712	43.3558
0.736	43.5605
0.76	43.6091
0.784	43.7658
0.808	43.7936
0.832	43.8271
0.856	43.1802
0.88	42.6653
0.904	42.5851
0.928	42.3331
0.952	42.3963
0.976	42.4036
1	42.5249
1.024	42.5376
1.048	42.4616
1.072	42.4248
1.096	42.3514
1.12	42.2394
1.144	42.0087
1.168	41.9291
1.192	41.8662
1.216	41.8342
1.24	41.6971
1.264	41.6009
1.288	41.5036
1.312	41.3659
1.336	41.2178
1.36	40.7575
1.384	39.8268
1.408	38.1538
1.432	37.8601
1.456	37.9877
1.48	38.2872
1.504	38.6044
1.528	38.7989
1.552	39.0192
1.576	39.0976
1.6	39.0794
1.624	39.0147
1.648	38.9826
1.672	38.9333
1.696	38.768
1.72	38.597
1.744	38.3459
1.768	38.0923
1.792	37.9869
1.816	37.8949
1.84	37.7921
1.864	37.2185
1.888	33.6239
1.912	29.4701
1.936	29.8207
1.96	30.4299
1.984	31.5965
2.008	32.3665
2.032	33.4661
2.056	34.0102
2.08	34.1218
2.104	34.2657
2.128	34.6224
2.152	34.5002
2.176	33.6873
2.2	32.6875
2.224	32.1398
2.248	31.869
2.272	31.8795
2.296	31.7844
2.32	31.6525
2.344	31.8008
2.368	31.2182
2.392	30.2443
2.416	28.9447
2.44	27.8385
2.464	26.7268
2.488	25.7778
2.504	24.9157
2.511	25.1114
2.519	24.6685
2.526	24.5655
2.533	23.9166
2.541	24.1741
2.548	23.7209
2.556	23.8033
2.563	24.102
2.571	23.4428
2.579	23.5458
2.586	23.5149
2.594	23.2574
2.602	22.2068
2.61	22.5673
2.618	22.2377
2.626	21.8566
2.634	21.3622
2.642	20.5279
2.65	19.6215
2.658	19.0962
2.666	17.7057
2.675	15.6457
2.683	13.3797
2.691	11.2785
2.7	9.2082
2.708	6.8804
2.717	5.665
2.725	5.0367
2.734	4.1715
2.742	3.6153
2.751	3.399
2.76	3.296
2.769	3.193
2.778	2.987
2.787	3.0076
2.796	2.884
2.805	3.1415
2.814	2.8634
2.823	2.6471
2.832	2.9149
2.842	2.7707
2.851	2.8119
2.86	2.7501
2.87	2.7192
2.879	2.4308
2.889	2.6471
2.899	2.7295
2.909	2.6162
2.918	2.6265
2.928	2.678
2.938	2.6059
2.948	2.6677
2.958	2.5544
2.968	2.6059
2.979	2.7707
2.989	2.7501
2.999	2.7707
3.01	2.7501
3.02	2.6574
3.031	2.8016
3.042	2.7398
3.052	2.987
3.063	2.7192
3.074	2.6883
3.085	2.7604
3.096	2.9149
3.107	2.9252
3.118	2.8428
3.13	2.987
3.141	3.1209
3.152	3.0694
3.164	3.2033
3.176	3.2857
3.187	3.3372
3.199	3.502
3.211	3.4608
3.223	3.5226
3.235	3.4814
3.247	3.502
3.259	3.7183
3.272	3.5844
3.284	3.8316
3.297	3.8728
3.309	3.9964
3.322	4.0685
3.335	4.2127
3.348	4.1921
3.361	4.3363
3.374	4.5011
3.387	4.4496
3.401	4.6556
3.414	4.7483
3.428	4.7483
3.441	5.0573
3.455	5.2736
3.469	5.4178
3.483	5.6238
3.497	5.7062
3.511	5.9328
3.525	5.9843
3.54	6.3448
3.554	6.4684
3.569	6.6023
3.584	6.9525
3.599	7.0658
3.614	7.1997
3.629	7.6426
3.644	7.9516
3.66	8.1679
3.675	8.3533
3.691	8.6005
3.707	8.7344
3.723	8.9301
3.739	9.1464
3.755	9.373
3.771	9.5275
3.788	9.6408
3.805	9.8468
3.822	9.7644
3.838	9.9807
3.856	10.0528
3.873	10.0013
3.89	10.0425
3.908	9.8674
3.926	10.0322
3.944	10.1455
3.962	10.0631
3.98	10.0013
3.998	9.9395
4.017	10.1764
4.036	10.1043
4.055	9.9189
4.074	9.7129
4.093	9.5378
4.112	9.3627
4.132	9.3009
4.152	9.1155
4.172	9.0022
4.192	8.7756
4.213	8.7035
4.233	8.5181
4.254	7.9207
4.275	7.6838
4.296	7.3954
4.318	7.0452
4.34	6.695
4.361	6.3963
4.384	6.18
4.406	6.1594
4.428	6.2315
4.451	6.386
4.474	6.4993
4.498	6.5302
4.521	6.7053
4.545	6.7671
4.569	6.7053
4.593	6.4993
4.618	6.3654
4.643	6.0358
4.668	5.9843
4.693	6.077
4.719	5.8916
4.744	5.7783
4.771	5.5723
4.797	5.2427
4.824	4.8101
4.851	4.1818
4.878	3.5844
4.906	2.9664
4.934	2.6986
4.962	2.5132
4.991	2.4102
5.02	2.4308
5.049	2.4411
5.079	2.5853
5.109	2.5956
5.139	2.6677
5.17	2.5956
5.201	2.3896
5.233	2.1733
5.265	1.9467
5.297	1.8849
5.33	1.854
5.363	1.9261
5.396	2.1424
5.43	2.2454
5.464	2.2866
5.499	2.1836
5.534	2.1321
5.57	2.06
5.606	2.1012
5.643	2.0085
5.68	1.9982
5.717	2.0188
5.755	1.9879
5.794	1.9467
5.833	1.8849
5.873	1.9158
5.913	1.7407
5.954	1.6377
5.995	1.5347
6.037	1.442
6.079	1.4111
6.122	1.4008
6.166	1.3905
6.21	1.4626
6.255	1.6274
6.301	1.6377
6.347	1.6995
6.394	1.7922
6.442	1.751
6.49	1.7201
6.539	1.3802
6.589	1.3802
6.64	1.2978
6.691	1.2257
6.743	1.0918
6.796	1.03
6.85	0.9991
6.905	0.8961
6.96	0.8755
7.017	0.8858
7.074	0.7931
7.133	0.8343
7.192	0.7004
7.252	0.6283
7.314	0.6386
7.376	0.6386
7.44	0.618
7.504	0.6695
7.57	0.7725
7.637	1.1639
7.705	1.4935
7.774	2.2351
7.845	3.4505
7.917	5.3045
7.99	7.2203
8.064	9.6923
8.14	12.6896
8.218	14.42
8.297	14.8423
8.377	14.2861
8.459	16.4594
8.543	17.2113
8.628	16.7169
8.715	18.7563
8.804	20.5588
8.894	22.3819
8.987	24.0711
9.081	25.2144
9.178	24.9878
9.276	22.3819
9.377	18.2619
9.479	15.141
9.585	13.5857
9.692	12.6896
9.802	11.5051
9.914	10.5266
10.029	9.4039
10.147	8.3739
10.268	7.3851
10.391	6.5405
10.518	6.0358
10.647	5.5826
10.78	5.356
10.916	5.1603
11.056	4.9028
11.199	4.6556
11.346	4.4084
11.497	4.0788
11.652	3.8316
11.811	3.3166
11.975	3.0385
12.143	2.5132
12.316	2.163
12.494	4.0685
12.677	4.8513
12.866	4.8513
13.06	4.1406
13.261	3.7698
13.467	3.4711
13.68	3.2754
13.9	3.1827
