Name: Altered volcanic tuff
Type: Rock
Class: Igneous
Subclass: Felsic
Particle Size: Whole rock chips
Sample No.: Cup7
Owner: USGS
Origin: Cuprite, Nevada
Description: Altered volcanic tuff, white
Measurement: Directional Hemispherical Reflectance
X Units: Wavelength (micrometers)
Y Units: Reflectance (percent)
wavelength	value
14.051	7.5602
13.826	5.4281
13.609	3.0282
13.398	2.1836
13.193	2.0703
12.995	1.9673
12.802	2.2042
12.616	1.9673
12.434	1.8128
12.258	1.6789
12.086	1.9055
11.92	2.1321
11.757	2.3793
11.6	2.678
11.446	2.9252
11.297	3.1106
11.151	3.3063
11.009	3.5226
10.87	3.6771
10.735	3.7183
10.604	3.9552
10.475	4.2745
10.35	4.6968
10.227	5.1294
10.108	5.6444
9.991	6.1491
9.877	6.9422
9.765	7.8486
9.656	7.4675
9.549	8.2194
9.445	9.2391
9.343	11.3918
9.243	14.9144
9.145	16.7581
9.049	17.9117
8.956	18.4164
8.864	17.5924
8.774	16.0371
8.686	13.7505
8.599	11.8347
8.515	11.2373
8.431	7.9413
8.35	6.4272
8.27	5.7371
8.192	5.5105
8.115	5.4281
8.039	5.4899
7.965	6.0152
7.893	6.0049
7.821	4.3878
7.751	2.6265
7.682	1.7201
7.614	1.2978
7.548	1.1021
7.483	1.1021
7.418	1.0609
7.355	1.0403
7.293	1.1021
7.232	1.1021
7.172	1.0506
7.113	1.1124
7.055	1.0609
6.998	1.1433
6.942	1.133
6.886	1.2257
6.832	1.1433
6.778	1.2257
6.726	1.2978
6.674	1.339
6.623	1.4832
6.572	1.5656
6.523	1.6068
6.474	1.8128
6.426	1.8437
6.378	1.8231
6.332	1.7407
6.286	1.7201
6.24	1.6789
6.195	1.6892
6.151	1.6377
6.108	1.6686
6.065	1.7098
6.023	1.7304
5.981	1.8128
5.94	1.8334
5.899	1.9982
5.859	2.2351
5.82	2.369
5.781	2.4411
5.743	2.4308
5.705	2.5338
5.667	2.6986
5.63	2.7192
5.594	2.7913
5.558	2.781
5.523	2.9252
5.487	2.9561
5.453	3.0076
5.419	3.09
5.385	2.8119
5.352	2.7089
5.319	2.6677
5.286	2.8016
5.254	2.987
5.222	3.2239
5.191	3.4814
5.16	3.6565
5.129	3.7183
5.099	3.7595
5.069	3.7389
5.04	3.708
5.01	3.6462
4.981	3.6874
4.953	3.708
4.925	3.8007
4.897	4.0582
4.869	4.1406
4.842	4.0685
4.815	4.4702
4.788	4.4393
4.762	3.605
4.736	3.1415
4.71	3.0591
4.684	3.1209
4.659	3.193
4.634	3.2445
4.61	3.1209
4.585	2.9973
4.561	3.0179
4.537	3.1724
4.513	3.2445
4.49	3.1827
4.467	3.3269
4.444	3.4402
4.421	3.4093
4.398	3.5432
4.376	3.3887
4.354	3.502
4.332	3.6874
4.311	3.9861
4.289	4.1921
4.268	4.5011
4.247	4.6247
4.226	5.0882
4.206	5.253
4.185	5.3972
4.165	5.5311
4.145	5.6135
4.126	5.6959
4.106	5.974
4.086	6.0564
4.067	6.4478
4.048	6.6229
4.029	6.798
4.011	6.9422
3.992	6.9731
3.974	6.9834
3.956	7.2203
3.938	7.4572
3.92	7.519
3.902	7.6117
3.884	7.5808
3.867	7.21
3.85	7.6838
3.833	7.7353
3.816	7.7765
3.799	7.8074
3.782	7.8074
3.766	7.6323
3.75	7.6014
3.733	7.5293
3.717	7.3645
3.702	7.2615
3.686	7.1482
3.67	6.9731
3.655	6.9628
3.639	6.8186
3.624	6.6435
3.609	6.4581
3.594	6.386
3.579	6.1903
3.564	5.974
3.549	5.9431
3.535	5.7062
3.521	5.4796
3.506	5.1294
3.492	5.0882
3.478	5.0573
3.464	4.8307
3.45	4.8101
3.437	4.4702
3.423	4.0685
3.409	4.223
3.396	4.2436
3.383	4.2642
3.37	4.223
3.357	4.1715
3.344	4.0788
3.331	4.1406
3.318	3.8625
3.305	4.017
3.293	3.8625
3.28	3.9037
3.268	3.7183
3.255	3.8316
3.243	3.5741
3.231	3.5226
3.219	3.4711
3.207	3.4711
3.195	3.4608
3.183	3.2033
3.172	3.2342
3.16	3.2651
3.149	3.2548
3.137	3.0797
3.126	2.8016
3.115	3.0179
3.103	2.7398
3.092	2.6471
3.081	2.7501
3.07	2.575
3.06	2.6986
3.049	2.6986
3.038	2.7295
3.027	2.5956
3.017	2.6059
3.006	2.7089
2.996	2.5853
2.986	2.4102
2.975	2.5132
2.965	2.5029
2.955	2.4514
2.945	2.5132
2.935	2.6368
2.925	2.5338
2.915	2.6368
2.905	2.5029
2.896	2.5647
2.886	2.5544
2.876	3.6153
2.867	5.1397
2.857	2.9046
2.848	2.9973
2.838	2.6162
2.829	2.0394
2.82	1.9055
2.811	2.1115
2.802	2.2866
2.793	2.3484
2.784	2.4514
2.775	2.7295
2.766	2.6883
2.757	2.8634
2.748	3.2651
2.74	3.3887
2.731	3.9552
2.722	4.1303
2.714	4.5835
2.705	5.5105
2.697	6.7053
2.688	7.7147
2.68	8.7241
2.672	9.3112
2.664	10.3927
2.655	10.9798
2.647	12.4836
2.639	12.5351
2.631	12.6896
2.623	12.4836
2.615	12.5557
2.607	11.8553
2.599	11.8141
2.592	11.0828
2.584	10.6193
2.576	10.6708
2.569	11.0416
2.561	10.5472
2.553	11.1446
2.546	11.1858
2.538	10.5884
2.531	10.3309
2.524	9.3524
2.516	8.0649
2.509	8.5902
2.502	9.5584
2.484	10.3132
2.46	11.1465
2.436	10.3174
2.412	12.3295
2.388	14.5679
2.364	19.4983
2.34	18.402
2.316	16.7543
2.292	22.0735
2.268	22.921
2.244	22.7456
2.22	17.0741
2.196	14.6768
2.172	12.8993
2.148	13.9039
2.124	16.7592
2.1	20.6478
2.076	21.7603
2.052	22.3375
2.028	23.2179
2.004	23.5049
1.98	24.2712
1.956	23.5685
1.932	23.1423
1.908	23.5167
1.884	28.7487
1.86	33.9925
1.836	35.5425
1.812	35.6683
1.788	31.3085
1.764	27.9114
1.74	31.9047
1.716	36.2941
1.692	37.7086
1.668	38.6762
1.644	39.1036
1.62	39.0276
1.596	38.8141
1.572	38.7215
1.548	38.2377
1.524	37.0217
1.5	33
1.476	23.9936
1.452	30.2947
1.428	26.7418
1.404	36.2203
1.38	40.8514
1.356	42.3337
1.332	43.4685
1.308	45.373
1.284	44.4947
1.26	43.4125
1.236	45.1125
1.212	46.128
1.188	46.5351
1.164	46.598
1.14	47.0462
1.116	47.2725
1.092	47.4729
1.068	47.534
1.044	47.4182
1.02	46.5992
0.996	45.9497
0.972	46.8618
0.948	47.4287
0.924	47.7124
0.9	47.9677
0.876	48.018
0.852	47.6921
0.828	47.4739
0.804	47.2426
0.78	47.0173
0.756	46.7912
0.732	46.4845
0.708	46.0417
0.684	45.4815
0.66	45.0197
0.636	44.6249
0.612	44.1326
0.588	43.3878
0.564	42.2512
0.54	40.8475
0.516	39.5023
0.492	38.2593
0.468	37.1675
0.444	35.9647
0.42	34.2492
