Name: Limestone CaCO3
Type: Rock
Class: Sedimentary
Subclass: Limestone
Particle Size: Whole rock chips
Sample No.: ro357
Owner: Larry Rowan, USGS
Origin: Ronda, Spain
Description: gray limestone with white calcite veins
Measurement: Reflectance
X Units: Wavelength (micrometers)
Y Units: Reflectance (percent)
wavelength	value
0.4	29.4
0.408	29.3
0.416	29.3
0.424	29.3
0.432	29.7
0.44	30
0.448	30.3
0.456	30.3
0.464	30
0.472	30.3
0.48	30.3
0.488	30.6
0.496	30.6
0.504	31
0.512	31.1
0.52	31.5
0.528	31.4
0.536	32.2
0.544	32.5
0.552	32.5
0.56	33.2
0.568	33.5
0.576	33.8
0.584	33.7
0.592	34.1
0.6	33.9
0.608	33.5
0.616	33.5
0.624	33.6
0.632	34.1
0.64	34.1
0.648	33.7
0.656	34.2
0.664	34.1
0.672	34.1
0.68	34.2
0.688	34.3
0.696	34.2
0.704	33.9
0.712	33.7
0.72	33.8
0.728	34.2
0.736	34.1
0.744	33.8
0.752	33.8
0.76	33.9
0.768	33.9
0.776	33.9
0.784	33.7
0.792	34.1
0.8	34.3
0.832	34.2
0.864	33.9
0.896	33.9
0.928	33.6
0.96	33.5
0.992	33.5
1.024	33.3
1.056	33.6
1.088	33.1
1.12	33.1
1.152	33.2
1.184	32.8
1.216	32.7
1.248	32.7
1.28	32.6
1.312	32.4
1.344	32.4
1.376	32
1.408	31.5
1.44	31.5
1.472	31.4
1.504	31.7
1.536	31.5
1.568	31.4
1.6	31.5
1.632	31.3
1.664	31.5
1.696	31.3
1.728	31.3
1.76	30.9
1.792	30.9
1.824	30.8
1.856	30.4
1.888	29.4
1.92	28.6
1.952	28.2
1.984	28.4
2.016	29.4
2.048	29.5
2.08	29.5
2.102	29.69
2.109	29.83
2.116	30.09
2.123	29.58
2.13	29.56
2.137	29.16
2.144	29.15
2.151	29.5
2.158	28.96
2.165	29.11
2.173	29.13
2.18	29.04
2.187	29.7
2.195	29.27
2.202	28.89
2.21	28.59
2.217	28.77
2.225	28.48
2.232	28.5
2.24	28.09
2.248	27.89
2.256	27.57
2.264	26.64
2.272	26.16
2.28	25.39
2.288	24.43
2.296	23.77
2.304	23.4
2.312	22.99
2.32	22.26
2.329	21.57
2.337	21.1
2.346	21.33
2.354	22.77
2.363	24.75
2.371	25.63
2.38	26.74
2.389	26.57
2.398	26.64
2.406	26.37
2.415	26.61
2.424	25.68
2.434	25.32
2.443	24.35
2.452	23.76
2.461	22.37
2.471	21.09
2.48	19.87
2.49	18.91
2.499	18.52
2.509	18.27
2.519	17.5
2.528	16.11
2.538	15.86
2.548	17.98
2.558	20.67
2.569	22.66
2.579	23.27
2.589	24.21
2.599	24.71
2.61	24.67
2.62	25
2.631	25.12
2.642	24.82
2.653	24.34
2.664	23.78
2.675	22.81
2.686	20.59
2.697	16.01
2.708	15.15
2.719	12.81
2.731	11.4
2.742	9.86
2.754	9.12
2.766	8.36
2.778	8.19
2.79	8.24
2.802	8.16
2.814	8.03
2.826	7.86
2.838	7.66
2.851	7.15
2.864	7.1
2.876	6.7
2.889	6.73
2.902	6.71
2.915	6.43
2.928	6.66
2.942	6.71
2.955	6.78
2.968	6.65
2.982	6.79
2.996	6.66
3.01	6.77
3.024	6.68
3.038	6.76
3.052	6.82
3.067	6.92
3.081	6.86
3.096	6.88
3.111	6.94
3.126	7.21
3.141	7.33
3.156	7.5
3.172	7.84
3.187	8.05
3.203	8.11
3.219	8.19
3.235	8.03
3.251	7.95
3.268	7.73
3.284	7.54
3.301	7.34
3.318	6.75
3.335	5.52
3.352	4.76
3.37	4.84
3.387	4.89
3.405	4.81
3.423	5
3.441	5.19
3.46	4.89
3.478	4.56
3.497	4.91
3.516	5.35
3.535	6.67
3.554	7.73
3.574	8.2
3.594	9.63
3.614	10.46
3.634	10.93
3.655	11.47
3.675	11.55
3.696	11.51
3.717	11.21
3.739	10.51
3.761	9.81
3.782	8.57
3.805	6.4
3.827	5.49
3.85	5.29
3.873	5.15
3.896	4.93
3.92	4.82
3.944	4.54
3.968	4.22
3.992	4.47
4.017	5.01
4.042	6.06
4.067	6.98
4.093	7.84
4.119	8.6
4.145	9.39
4.172	9.9
4.199	10.23
4.226	10.21
4.254	9.79
4.282	9.79
4.311	9.96
4.34	10.14
4.369	10.6
4.398	10.53
4.428	10.06
4.459	9.22
4.49	8.39
4.521	8.1
4.553	7.95
4.585	7.81
4.618	7.07
4.651	5.91
4.684	5.94
4.719	7.29
4.753	8.6
4.788	8.96
4.824	8.98
4.86	8.84
4.897	8.48
4.934	8.2
4.972	8.05
5.01	7.86
5.049	7.78
5.089	6.34
5.129	7.33
5.17	7.1
5.212	6.68
5.254	6.06
5.297	5.57
5.341	5.03
5.385	4.63
5.43	4.09
5.476	3.45
5.523	2.71
5.57	2.3
5.618	2.77
5.667	2.59
5.717	2.37
5.768	2.24
5.82	2.21
5.873	2.2
5.926	2.07
5.981	1.96
6.037	1.92
6.094	2.14
6.151	2.33
6.21	3.02
6.27	4.75
6.332	8.53
6.394	18.62
6.458	33.02
6.523	33.8
6.589	31.49
6.657	28.41
6.726	25.5
6.796	23.31
6.868	21.72
6.942	20.41
7.017	20.29
7.094	18.52
7.172	13.24
7.252	10.2
7.334	9.13
7.418	8.33
7.504	7.53
7.592	7.3
7.682	7.72
7.774	7.72
7.869	7.58
7.965	7.52
8.064	7.31
8.166	7.56
8.27	7.37
8.377	6.86
8.487	6.62
8.599	6.32
8.715	7.17
8.834	7.47
8.956	7.32
9.081	7.31
9.21	6.47
9.343	6.59
9.479	6.27
9.62	6.12
9.765	5.86
9.914	5.63
10.068	5.41
10.227	5.52
10.391	5.74
10.56	5.71
10.735	5.91
10.916	6.4
11.103	7.95
11.297	17.18
11.497	6.96
11.704	5.33
11.92	5.09
12.143	4.98
12.375	4.82
12.616	4.48
12.866	4.39
13.126	4.57
13.398	4.41
13.68	3.5
13.975	3.64
