Name: Limestone CaCO3
Type: Rock
Class: Sedimentary
Subclass: Limestone
Particle Size: Whole rock chips
Sample No.: ro353
Owner: Larry Rowan, USGS
Origin: Ronda, Spain
Description: light gray limestone
Measurement: Reflectance
X Units: Wavelength (micrometers)
Y Units: Reflectance (percent)
wavelength	value
0.4	40.35
0.408	40.8
0.416	41.1
0.424	41.475
0.432	42.375
0.44	42.75
0.448	42.925
0.456	43.3
0.464	43.675
0.472	44.05
0.48	44.275
0.488	44.325
0.496	45
0.504	45.275
0.512	45.6
0.52	46.35
0.528	46.35
0.536	46.9
0.544	47.325
0.552	47.775
0.56	48
0.568	48.575
0.576	49.125
0.584	49.175
0.592	49.375
0.6	49.425
0.608	49.425
0.616	49.7
0.624	49.8
0.632	50.05
0.64	50.025
0.648	50.025
0.656	50.55
0.664	50.35
0.672	50.45
0.68	51.075
0.688	50.775
0.696	51.075
0.704	51.225
0.712	51.225
0.72	51.5
0.728	51.55
0.736	51.525
0.744	51.45
0.752	51.75
0.76	51.675
0.768	51.525
0.776	51.6
0.784	51.375
0.792	51.425
0.8	51.25
0.832	51.35
0.864	51.55
0.896	51.6
0.928	51.6
0.96	51.575
0.992	51.575
1.024	51.575
1.056	51.875
1.088	52.125
1.12	52.4
1.152	52.675
1.184	52.925
1.216	53.075
1.248	53.15
1.28	53.45
1.312	53.275
1.344	52.9
1.376	49.575
1.408	46.95
1.44	46.375
1.472	47.325
1.504	48.775
1.536	49.925
1.568	50.625
1.6	51.15
1.632	51.375
1.664	51.5
1.696	51.125
1.728	50.325
1.76	50
1.792	49.7
1.824	47.85
1.856	44.25
1.888	38.575
1.92	35.05
1.952	35.5
1.984	36.375
2.016	40.15
2.048	42.5
2.08	43.325
2.102	44.6775
2.109	44.525
2.116	44.745
2.123	44.3275
2.13	44.2925
2.137	44.1175
2.144	43.125
2.151	42.6875
2.158	42.46
2.165	42.56
2.173	43.4375
2.18	43.0775
2.187	43.465
2.195	43.15
2.202	42.705
2.21	41.78
2.217	41.09
2.225	40.2225
2.232	38.5425
2.24	37.215
2.248	36.1125
2.256	35.32
2.264	33.9575
2.272	32.805
2.28	31.245
2.288	29.1
2.296	28.09
2.304	27.495
2.312	26.4625
2.32	25.7075
2.329	24.735
2.337	24.03
2.346	24.8775
2.354	26.9175
2.363	30.4675
2.371	32.54
2.38	33.9025
2.389	33.91
2.398	33.8325
2.406	33.695
2.415	33.4675
2.424	32.1125
2.434	30.775
2.443	29.2825
2.452	27.975
2.461	26.1625
2.471	24.5225
2.48	22.7825
2.49	21.8075
2.499	21.31
2.509	20.915
2.519	20.0125
2.528	18.4375
2.538	18.0175
2.548	20.5975
2.558	24.2
2.569	26.7025
2.579	28.03
2.589	29.0525
2.599	29.83
2.61	30.22
2.62	30.2075
2.631	29.9275
2.642	29.355
2.653	28.8075
2.664	27.6625
2.675	26.195
2.686	23.3975
2.697	19.8525
2.708	16.14
2.719	13.1925
2.731	12.6375
2.742	11.71
2.754	10.9175
2.766	10.3575
2.778	9.6775
2.79	9.305
2.802	9.2475
2.814	9.2725
2.826	9.0625
2.838	8.9325
2.851	8.8
2.864	8.575
2.876	8.4975
2.889	8.3275
2.902	8.1625
2.915	8.0825
2.928	8.065
2.942	8.0075
2.955	8.0475
2.968	8.07
2.982	8.07
2.996	8.1575
3.01	8.1725
3.024	8.3125
3.038	8.325
3.052	8.3525
3.067	8.425
3.081	8.4775
3.096	8.51
3.111	8.505
3.126	8.7625
3.141	8.9125
3.156	9.025
3.172	9.4075
3.187	9.6875
3.203	9.8375
3.219	9.9775
3.235	10.035
3.251	10.05
3.268	10.015
3.284	9.77
3.301	9.1625
3.318	8.585
3.335	7.1625
3.352	5.775
3.37	6.1475
3.387	6.195
3.405	6.2475
3.423	6.2175
3.441	6.1075
3.46	5.9225
3.478	5.31
3.497	5.76
3.516	6.5475
3.535	8.485
3.554	9.78
3.574	10.3
3.594	12.04
3.614	12.9675
3.634	13.4275
3.655	13.8
3.675	13.9425
3.696	13.7975
3.717	13.36
3.739	12.4975
3.761	11.3825
3.782	9.76
3.805	7.28
3.827	6.265
3.85	5.7625
3.873	5.6625
3.896	5.465
3.92	5.195
3.944	4.67
3.968	4.2125
3.992	4.625
4.017	5.635
4.042	7.03
4.067	8.3625
4.093	9.3575
4.119	10.1725
4.145	10.9825
4.172	11.6175
4.199	11.8925
4.226	11.73
4.254	11.205
4.282	11.27
4.311	11.3975
4.34	11.635
4.369	12.15
4.398	11.875
4.428	11.3175
4.459	10.55
4.49	9.79
4.521	9.375
4.553	9.1625
4.585	8.855
4.618	8.18
4.651	6.8775
4.684	6.8225
4.719	8.42
4.753	9.4675
4.788	9.72
4.824	9.59
4.86	9.38
4.897	9.2275
4.934	9.0075
4.972	8.8925
5.01	8.7675
5.049	8.5575
5.089	7.2075
5.129	7.98
5.17	7.68
5.212	7.265
5.254	6.7675
5.297	6.25
5.341	5.6575
5.385	5.0025
5.43	4.2675
5.476	3.54
5.523	2.785
5.57	2.2475
5.618	2.93
5.667	2.7425
5.717	2.4775
5.768	2.3325
5.82	2.265
5.873	2.1625
5.926	1.95
5.981	1.755
6.037	1.6825
6.094	1.6275
6.151	1.81
6.21	2.47
6.27	3.9725
6.332	8.0725
6.394	18.1475
6.458	33.8375
6.523	34.46
6.589	31.725
6.657	28.725
6.726	25.805
6.796	23.4225
6.868	21.735
6.942	20.375
7.017	19.965
7.094	17.9025
7.172	13.2525
7.252	10.8925
7.334	10.185
7.418	9.585
7.504	9.065
7.592	8.6825
7.682	8.635
7.774	8.4425
7.869	8.2925
7.965	8.13
8.064	7.8175
8.166	7.815
8.27	7.585
8.377	7.095
8.487	6.8375
8.599	6.8975
8.715	7.5475
8.834	8.0325
8.956	8.085
9.081	7.8325
9.21	7.255
9.343	7.5825
9.479	7.645
9.62	7.595
9.765	7.04
9.914	6.41
10.068	6.1625
10.227	6.195
10.391	6.215
10.56	5.9
10.735	5.975
10.916	6.435
11.103	7.485
11.297	16.745
11.497	7.0675
11.704	5.8125
11.92	5.7775
12.143	5.36
12.375	5.1325
12.616	4.83
12.866	4.6025
13.126	4.56
13.398	4.4175
13.68	3.625
13.975	3.7175
