Name: Dacite
Type: Rock
Class: Intermediate
Subclass: Felsic
Particle Size: Whole Rock Chips
Sample No.: AP-960-157b
Owner: United States Geological Survey, L. C. Rowan
Origin: Iberian Pyrite Belt, Spain
Description: Dacite, chloritic
Measurement: Directional Hemispherical Reflectance
X Units: Wavelength (micrometers)
Y Units: Reflectance (percent)
wavelength	value
14.051	1.7098
13.79	1.9467
13.538	2.0703
13.295	2.1939
13.06	2.5132
12.834	2.8428
12.616	2.5544
12.404	2.3896
12.2	2.1424
12.002	2.3072
11.811	2.5956
11.626	2.6677
11.446	2.8634
11.272	2.9767
11.103	3.1415
10.939	3.3372
10.78	3.3166
10.625	3.4814
10.475	3.6462
10.329	3.7183
10.187	4.0479
10.049	4.429
9.914	4.5938
9.783	4.5526
9.656	5.1294
9.532	5.0985
9.411	5.4796
9.293	6.2933
9.178	6.0873
9.065	5.768
8.956	5.5002
8.849	5.4487
8.744	5.2015
8.642	4.3363
8.543	4.7689
8.445	5.1397
8.35	5.1191
8.257	5.2221
8.166	5.0367
8.077	3.8007
7.99	2.9973
7.905	2.4102
7.821	2.1321
7.739	2.0394
7.659	1.9158
7.581	1.7201
7.504	1.8437
7.429	1.751
7.355	1.648
7.283	1.5759
7.212	1.6068
7.143	1.6789
7.074	1.6583
7.007	1.6068
6.942	1.6892
6.877	1.6789
6.814	1.7407
6.752	1.8643
6.691	2.0394
6.631	2.0703
6.572	2.0291
6.514	1.9364
6.458	2.0085
6.402	1.9982
6.347	2.0291
6.293	2.0291
6.24	1.9364
6.188	1.8334
6.137	1.751
6.086	1.7407
6.037	1.7407
5.988	1.751
5.94	1.9776
5.893	2.1321
5.846	2.3999
5.8	2.5338
5.755	2.8737
5.711	3.3269
5.667	4.0891
5.624	4.5526
5.582	4.8204
5.54	5.4075
5.499	5.8504
5.459	6.1491
5.419	6.3551
5.379	6.1903
5.341	6.1903
5.302	6.2933
5.265	6.489
5.227	6.8186
5.191	6.9319
5.155	6.9937
5.119	6.8907
5.084	6.901
5.049	6.8186
5.015	6.901
4.981	6.9937
4.948	7.1585
4.915	7.2203
4.883	7.5705
4.851	7.828
4.819	8.1164
4.788	8.1885
4.758	8.2812
4.727	8.5696
4.697	8.6314
4.668	8.6623
4.638	8.9301
4.61	9.167
4.581	9.4348
4.553	9.4451
4.525	9.6408
4.498	9.5172
4.47	9.4966
4.444	9.8159
4.417	10.0837
4.391	10.4442
4.365	10.7017
4.34	10.7738
4.314	10.8665
4.289	10.9077
4.265	10.8974
4.24	10.8356
4.216	10.7429
4.192	10.6605
4.169	10.5884
4.145	10.403
4.122	10.2897
4.099	10.1249
4.077	9.8983
4.055	9.8365
4.032	9.6511
4.011	9.4451
3.989	9.4039
3.968	9.1361
3.947	9.1773
3.926	9.1464
3.905	9.0743
3.884	8.8065
3.864	8.7447
3.844	8.4357
3.824	8.3533
3.805	7.9619
3.785	7.9001
3.766	7.6426
3.747	7.519
3.728	7.2924
3.709	7.0452
3.691	7.0452
3.673	6.7053
3.655	6.4684
3.637	6.3757
3.619	6.3139
3.601	6.1182
3.584	5.9534
3.567	5.6959
3.549	5.4384
3.533	5.1088
3.516	4.738
3.499	4.4187
3.483	4.1921
3.466	3.914
3.45	3.8316
3.434	3.6977
3.418	3.4299
3.403	3.6771
3.387	3.6153
3.372	3.7492
3.357	3.8831
3.341	4.3054
3.326	4.2127
3.312	3.9964
3.297	3.7595
3.282	3.7389
3.268	3.5535
3.253	3.6153
3.239	3.4196
3.225	3.3578
3.211	3.0694
3.197	3.0385
3.183	2.9664
3.17	3.0282
3.156	2.781
3.143	2.8325
3.13	2.7295
3.117	2.369
3.103	2.575
3.091	2.472
3.078	2.3484
3.065	2.3587
3.052	2.1527
3.04	2.4205
3.027	2.3484
3.015	2.163
3.003	2.0394
2.991	2.0188
2.979	2.1527
2.967	1.8025
2.955	2.1733
2.943	1.8437
2.932	2.1218
2.92	2.0703
2.909	2.0394
2.897	1.9467
2.886	2.1424
2.875	2.0703
2.864	2.1836
2.853	2.2866
2.842	2.2969
2.831	2.3587
2.82	2.6162
2.809	3.1209
2.799	2.9664
2.788	3.1724
2.778	3.6668
2.767	3.9655
2.757	4.1715
2.747	5.0779
2.737	5.8195
2.727	7.1791
2.717	8.5387
2.707	7.931
2.697	10.3206
2.687	14.8217
2.677	16.9744
2.668	18.3443
2.658	19.5803
2.649	20.6721
2.639	20.9605
2.63	21.0841
2.62	21.4137
2.611	22.0214
2.602	21.7845
2.593	22.1141
2.584	21.836
2.575	22.248
2.566	21.9905
2.557	22.0832
2.548	21.733
2.54	21.6609
2.531	21.3931
2.522	21.8257
2.514	21.5991
2.505	21.8463
2.489	22.0978
2.461	22.9978
2.433	25.0978
2.405	26.5978
2.377	26.1978
2.349	21.8978
2.321	21.8978
2.293	24.9978
2.265	28.6978
2.237	30.0978
2.209	31.7978
2.181	33.7978
2.153	35.9978
2.125	37.0978
2.097	38.6978
2.069	38.3978
2.041	38.4978
2.013	37.6978
1.985	35.6978
1.957	34.2978
1.929	33.2978
1.901	34.3978
1.873	40.9978
1.845	42.5978
1.817	42.6978
1.789	42.8978
1.761	42.7978
1.733	43.0978
1.705	42.6978
1.677	42.5978
1.649	42.6978
1.621	42.0978
1.593	42.0978
1.565	40.4978
1.537	39.8978
1.509	39.9978
1.481	38.9978
1.453	37.6978
1.425	36.6978
1.397	35.4978
1.369	38.0978
1.341	37.2978
1.313	35.9978
1.285	34.8978
1.257	34.2978
1.229	32.3978
1.201	30.9978
1.173	29.9978
1.145	28.8978
1.117	27.7978
1.089	26.4978
1.061	25.9978
1.033	25.4978
1.005	25.0978
0.977	24.4978
0.949	23.7978
0.921	22.6978
0.893	21.6978
0.865	20.5978
0.837	20.1978
0.809	20.5978
0.799	20.1978
0.792	20.6978
0.785	20.9978
0.778	20.9978
0.771	21.0978
0.764	21.3978
0.757	21.3978
0.75	21.2978
0.743	21.4978
0.736	21.2978
0.729	20.8978
0.722	20.8978
0.715	20.3978
0.708	19.5978
0.701	19.7978
0.694	19.8978
0.687	19.0978
0.68	18.7978
0.673	19.1978
0.666	18.9978
0.659	18.5978
0.652	18.5978
0.645	18.4978
0.638	18.0978
0.631	17.9978
0.624	17.9978
0.617	17.4978
0.61	17.0978
0.603	16.5978
0.596	15.4978
0.589	14.8978
0.582	14.1978
0.575	13.4978
0.568	12.0978
0.561	10.4978
0.554	9.2978
0.547	7.9978
0.54	7.3978
0.533	6.0978
0.526	5.2978
0.519	4.7978
0.512	3.7978
0.505	3.1978
0.498	2.2978
0.491	1.6978
0.484	1.3978
0.477	0.8978
0.47	0.7978
0.463	1.6978
0.456	1.0978
0.449	0.8978
0.442	0.0978
0.435	0
0.428	0
0.421	0
0.414	0
0.407	0
