Name: Limestone CaCO3
Type: Rock
Class: Sedimentary
Subclass: Limestone
Particle Size: Whole rock chips
Sample No.: ro360
Owner: Larry Rowan, USGS
Origin: Ronda, Spain
Description: light gray limestone
Measurement: Reflectance
X Units: Wavelength (micrometers)
Y Units: Reflectance (percent)
wavelength	value
0.4	48.6
0.408	49.3
0.416	49.3
0.424	49.6
0.432	50.1
0.44	50.3
0.448	50.4
0.456	50.8
0.464	50.5
0.472	50.9
0.48	50.7
0.488	50.9
0.496	50.9
0.504	51.3
0.512	51.3
0.52	51.8
0.528	51.8
0.536	51.3
0.544	52
0.552	52.3
0.56	51.9
0.568	52
0.576	52.9
0.584	52.5
0.592	52.6
0.6	52.6
0.608	52.1
0.616	51.8
0.624	52
0.632	52.6
0.64	52.7
0.648	51.6
0.656	52.5
0.664	52.7
0.672	52.5
0.68	52.7
0.688	52.4
0.696	53
0.704	52.5
0.712	52.9
0.72	53
0.728	52.7
0.736	53.2
0.744	52.9
0.752	53.2
0.76	53.4
0.768	53.1
0.776	53.5
0.784	53.7
0.792	53.5
0.8	53.2
0.832	53.2
0.864	54
0.896	54.3
0.928	54.1
0.96	54
0.992	54.2
1.024	54.5
1.056	54.9
1.088	55.1
1.12	54.8
1.152	54.9
1.184	54.8
1.216	54.9
1.248	54.7
1.28	54.5
1.312	54.2
1.344	53.8
1.376	52.3
1.408	49.1
1.44	47.9
1.472	48.5
1.504	49.8
1.536	50.7
1.568	50.9
1.6	51.6
1.632	51.5
1.664	51
1.696	50.1
1.728	48.8
1.76	49
1.792	49
1.824	46.3
1.856	41.1
1.888	38.5
1.92	35.5
1.952	35.2
1.984	34.9
2.016	39.4
2.048	41.9
2.08	42.4
2.102	44.18
2.109	43.76
2.116	43.73
2.123	43.28
2.13	42.72
2.137	42.04
2.144	41.12
2.151	40.37
2.158	40.18
2.165	40.77
2.173	41.42
2.18	41.65
2.187	42.24
2.195	41.95
2.202	41.59
2.21	40.46
2.217	39.98
2.225	39.24
2.232	38.11
2.24	37.11
2.248	35.41
2.256	33.97
2.264	32.26
2.272	30.54
2.28	28.86
2.288	26.89
2.296	26.29
2.304	25.1
2.312	24.81
2.32	23.9
2.329	22.63
2.337	22.28
2.346	22.78
2.354	24.6
2.363	28.2
2.371	31.32
2.38	33.53
2.389	34.25
2.398	34.16
2.406	33.79
2.415	33.2
2.424	31.52
2.434	29.85
2.443	28.28
2.452	26.34
2.461	24.42
2.471	22.79
2.48	21.02
2.49	19.95
2.499	19.84
2.509	19.1
2.519	18.5
2.528	17.25
2.538	17.21
2.548	19.32
2.558	22.55
2.569	25.31
2.579	27.25
2.589	28.77
2.599	30.31
2.61	30.65
2.62	30.86
2.631	30.46
2.642	30.14
2.653	29.36
2.664	28.23
2.675	26.46
2.686	24.23
2.697	20.8
2.708	18.47
2.719	13.98
2.731	14.53
2.742	13.43
2.754	12.54
2.766	11.87
2.778	11.03
2.79	10.4
2.802	10.38
2.814	10
2.826	9.67
2.838	9.53
2.851	9.19
2.864	8.97
2.876	8.58
2.889	8.32
2.902	8.34
2.915	8.18
2.928	8.14
2.942	8.12
2.955	8.06
2.968	8.13
2.982	7.95
2.996	8.16
3.01	8.13
3.024	8.16
3.038	8.3
3.052	8.3
3.067	8.4
3.081	8.47
3.096	8.6
3.111	8.68
3.126	9.11
3.141	9.1
3.156	9.3
3.172	9.84
3.187	9.99
3.203	10.24
3.219	10.41
3.235	10.52
3.251	10.49
3.268	10.35
3.284	10.31
3.301	9.65
3.318	9.15
3.335	7.94
3.352	6.83
3.37	6.89
3.387	6.71
3.405	6.4
3.423	6.33
3.441	6.67
3.46	6.55
3.478	6.09
3.497	6.49
3.516	7.3
3.535	8.98
3.554	10.02
3.574	10.47
3.594	11.78
3.614	12.35
3.634	12.71
3.655	12.98
3.675	13.18
3.696	13.03
3.717	12.7
3.739	12.02
3.761	11.35
3.782	10.23
3.805	8.59
3.827	7.8
3.85	7.3
3.873	7.18
3.896	7.04
3.92	6.82
3.944	6.12
3.968	5.4
3.992	5.99
4.017	7.31
4.042	8.47
4.067	9.47
4.093	10.17
4.119	10.77
4.145	11.24
4.172	11.59
4.199	11.74
4.226	11.45
4.254	10.52
4.282	10.54
4.311	10.97
4.34	11.32
4.369	11.8
4.398	11.73
4.428	11.33
4.459	10.81
4.49	10.21
4.521	10
4.553	9.85
4.585	9.57
4.618	9.02
4.651	8.13
4.684	8.06
4.719	9.13
4.753	9.98
4.788	10.26
4.824	10.11
4.86	10.01
4.897	9.85
4.934	9.67
4.972	9.58
5.01	9.54
5.049	9.32
5.089	8.05
5.129	8.7
5.17	8.39
5.212	8.01
5.254	7.56
5.297	7.08
5.341	6.44
5.385	5.91
5.43	5.31
5.476	4.5
5.523	3.75
5.57	2.98
5.618	3.93
5.667	3.69
5.717	3.22
5.768	2.96
5.82	2.95
5.873	2.78
5.926	2.54
5.981	2.26
6.037	2.15
6.094	2.09
6.151	2.29
6.21	3.03
6.27	4.7
6.332	8.64
6.394	19.09
6.458	33.74
6.523	32.96
6.589	29.52
6.657	26.04
6.726	22.62
6.796	19.91
6.868	18.11
6.942	16.83
7.017	16.64
7.094	15.35
7.172	11.78
7.252	10.08
7.334	9.92
7.418	9.8
7.504	9.48
7.592	9.3
7.682	9.44
7.774	9.35
7.869	9.25
7.965	9.06
8.064	8.73
8.166	8.83
8.27	8.57
8.377	8.07
8.487	7.73
8.599	7.43
8.715	7.9
8.834	8.38
8.956	8.43
9.081	8.23
9.21	7.38
9.343	7.96
9.479	7.59
9.62	7.33
9.765	6.91
9.914	6.48
10.068	6.53
10.227	6.97
10.391	7.31
10.56	7.19
10.735	7.46
10.916	8.37
11.103	9.5
11.297	15.1
11.497	7.68
11.704	7.29
11.92	7.46
12.143	6.99
12.375	6.6
12.616	6.03
12.866	5.74
13.126	5.72
13.398	5.52
13.68	4.25
13.975	3.98
