Name: Inderite MgB3O3(OH)5 * 5H2O
Type: Mineral
Class: Borate
Particle Size: Unsieved coarse powder
Sample No.: NMNH 137833
Owner: Smithsonian Institute, National Museum of Nat. History
Origin: Kern County, CA
Description: Inderite from Kern County, CA
Measurement: Directional Hemispherical Reflectance
X Units: Wavelength (micrometers)
Y Units: Reflectance (percent)
wavelength	value
0.4	49.5101
0.414	50.1187
0.428	50.8608
0.442	51.7129
0.456	52.5132
0.47	53.1158
0.484	53.701
0.498	54.4092
0.512	55.1459
0.526	55.8876
0.54	56.5397
0.554	57.0815
0.568	57.5069
0.582	57.7882
0.596	57.9921
0.61	58.1454
0.624	58.1901
0.638	58.2852
0.652	58.3487
0.666	58.391
0.68	58.3512
0.694	58.3502
0.708	58.3332
0.722	58.3563
0.736	58.4044
0.75	58.5064
0.764	58.7222
0.778	58.9207
0.792	59.1705
0.806	59.3343
0.82	59.4678
0.834	59.4712
0.848	59.4107
0.862	59.6224
0.876	59.2502
0.89	59.4315
0.904	59.1892
0.918	59.4027
0.932	59.4611
0.946	59.3981
0.96	58.8289
0.974	56.4444
0.988	58.0755
1.002	58.3309
1.016	58.531
1.03	58.7075
1.044	59.165
1.058	59.2376
1.072	59.3726
1.086	59.4627
1.1	59.4217
1.114	59.2257
1.128	59.1499
1.142	58.9164
1.156	57.826
1.17	56.2164
1.184	56.3943
1.198	55.7398
1.212	55.5126
1.226	54.5189
1.24	54.7096
1.254	54.8865
1.268	54.7502
1.282	54.5694
1.296	54.7729
1.31	54.4914
1.324	53.5293
1.338	51.4787
1.352	50.3787
1.366	49.3483
1.38	48.4761
1.394	44.4179
1.408	35.5822
1.422	23.7178
1.436	27.2656
1.45	25.4462
1.464	25.8242
1.478	25.2725
1.492	25.688
1.506	25.868
1.52	25.6906
1.534	25.6718
1.548	25.4155
1.562	25.3657
1.576	25.2986
1.59	25.2106
1.604	24.9254
1.618	24.888
1.632	24.7197
1.646	24.5935
1.66	24.4606
1.674	24.5249
1.688	24.5867
1.702	24.3942
1.716	24.1952
1.73	24.203
1.744	24.2067
1.758	24.2971
1.772	24.4743
1.786	24.6933
1.8	25.2168
1.814	25.4846
1.828	25.5975
1.842	25.6203
1.856	25.527
1.87	24.7454
1.884	22.9146
1.898	20.5885
1.912	16.7924
1.926	13.9346
1.94	14.9073
1.954	15.1537
1.968	14.6987
1.982	14.2698
1.996	14.5083
2.01	15.2741
2.024	16.0483
2.038	16.581
2.052	17.0337
2.066	17.4111
2.08	17.6796
2.094	17.4717
2.108	16.7714
2.122	17.3455
2.136	16.6718
2.15	16.4953
2.164	16.4368
2.178	16.2095
2.192	16.8912
2.206	17.4878
2.22	17.3075
2.234	17.2181
2.248	17.566
2.262	18.1658
2.276	18.5727
2.29	18.5644
2.304	18.4712
2.318	18.1376
2.332	17.555
2.346	16.6573
2.36	15.5675
2.374	14.7027
2.388	13.8684
2.402	13.384
2.416	12.8231
2.43	12.2202
2.444	11.4301
2.458	11.1646
2.472	10.572
2.486	10.3997
2.5	10.2897
2.509	10.3824
2.517	10.6708
2.526	10.7326
2.535	10.7429
2.543	11.0004
2.552	11.1137
2.561	10.8768
2.57	11.0107
2.579	11.0107
2.588	10.9798
2.597	10.6708
2.606	10.4133
2.615	10.2588
2.624	9.9601
2.634	9.6614
2.643	9.4245
2.653	8.6623
2.662	8.2915
2.672	7.5499
2.681	7.2821
2.691	6.1903
2.701	5.562
2.711	4.7174
2.721	4.0479
2.731	3.2342
2.741	2.7501
2.751	1.9673
2.761	1.5038
2.772	1.6171
2.782	1.4214
2.793	1.2669
2.803	1.3802
2.814	1.3802
2.825	1.1433
2.835	1.03
2.846	0.9682
2.857	1.0506
2.868	1.2154
2.879	1.2669
2.891	1.2978
2.902	1.4832
2.913	1.545
2.925	1.3802
2.937	1.4008
2.948	1.3905
2.96	1.442
2.972	1.5862
2.984	1.5244
2.996	1.6377
3.008	1.5965
3.02	1.6068
3.033	1.6583
3.045	1.7716
3.058	1.9364
3.07	1.9467
3.083	1.9467
3.096	2.0188
3.109	2.06
3.122	2.0909
3.135	2.1012
3.149	2.163
3.162	2.1733
3.176	2.2248
3.189	2.2248
3.203	2.2969
3.217	2.2248
3.231	2.1733
3.245	2.3072
3.259	2.2145
3.274	2.2557
3.288	2.2763
3.303	2.3175
3.318	2.2042
3.333	2.1939
3.348	2.2763
3.363	2.163
3.378	2.1424
3.394	2.2145
3.409	2.2454
3.425	2.2145
3.441	2.3793
3.457	2.5338
3.473	2.5956
3.49	2.7501
3.506	2.8222
3.523	3.1106
3.54	3.2857
3.557	3.5535
3.574	3.502
3.591	3.6462
3.609	3.6668
3.626	3.8728
3.644	3.8625
3.662	3.9655
3.68	4.12
3.699	4.2127
3.717	4.3775
3.736	4.4702
3.755	4.5526
3.774	4.6247
3.794	4.7071
3.813	4.7071
3.833	4.7689
3.853	4.738
3.873	4.5938
3.893	4.5526
3.914	4.4084
3.935	4.429
3.956	4.2745
3.977	4.223
3.998	4.2436
4.02	4.3466
4.042	4.3878
4.064	4.3569
4.086	4.2848
4.109	4.2539
4.132	4.0788
4.155	4.017
4.179	3.9758
4.202	3.914
4.226	4.017
4.251	3.8625
4.275	3.8831
4.3	3.914
4.325	3.914
4.35	3.9552
4.376	4.017
4.402	4.0582
4.428	4.1097
4.455	4.1612
4.482	4.1818
4.509	4.2745
4.537	4.3157
4.565	4.3466
4.593	4.4496
4.622	4.4393
4.651	4.4187
4.68	4.4805
4.71	4.5732
4.74	4.635
4.771	4.5217
4.802	4.5526
4.833	4.5526
4.865	4.532
4.897	4.6041
4.929	4.6144
4.962	4.5938
4.996	4.5526
5.03	4.5629
5.064	4.5732
5.099	4.5629
5.134	4.5423
5.17	4.4599
5.206	4.4084
5.243	4.3466
5.281	4.1715
5.319	4.0376
5.357	3.9346
5.396	3.7595
5.436	3.4917
5.476	3.3269
5.517	3.1312
5.558	2.9046
5.6	2.6471
5.643	2.3587
5.686	2.0085
5.73	1.4523
5.775	1.1742
5.82	1.1124
5.866	1.2257
5.913	1.339
5.96	1.4214
6.009	1.3905
6.058	1.4729
6.108	1.7716
6.159	1.9673
6.21	2.0703
6.263	1.9879
6.316	1.8952
6.37	1.7613
6.426	1.7304
6.482	1.6789
6.539	1.6583
6.597	1.5038
6.657	1.3184
6.717	1.0815
6.778	0.8755
6.841	0.8652
6.905	1.1433
6.97	0.9682
7.036	1.5347
7.103	2.4411
7.172	2.266
7.242	1.8334
7.314	2.2866
7.387	2.6471
7.461	2.3381
7.537	1.9364
7.614	1.6171
7.694	1.3802
7.774	1.5965
7.857	1.6995
7.941	1.5553
8.027	1.4008
8.115	1.2669
8.205	1.1536
8.297	1.1536
8.391	1.4626
8.487	1.5656
8.585	1.6171
8.686	2.163
8.789	2.1939
8.894	1.648
9.002	1.3699
9.113	1.5553
9.226	2.06
9.343	3.4299
9.462	4.6968
9.585	4.3157
9.71	3.4711
9.839	4.0376
9.972	4.1303
10.108	4.2642
10.247	3.8316
10.391	3.4402
10.539	3.1621
10.691	2.9973
10.848	3.2857
11.009	4.0582
11.175	4.223
11.346	4.1612
11.522	4.0067
11.704	3.6771
11.892	3.0694
12.086	2.781
12.287	2.4411
12.494	3.5947
12.708	3.0797
12.93	2.7192
13.16	2.1733
13.398	3.1621
13.644	2.7295
13.9	2.7295
