Name: Carnallite KMgCl3 * 6H2O
Type: Mineral
Class: Chloride
Subclass: None
Particle Size: Unsieved coarse powder
Sample No.: NMNH 98011
Owner: Smithsonian Institute, National Museum of Nat. History
Origin: Barcelona, Spain
Description: Carnallite from Barcelona, Spain - NMNH 98011
Measurement: Directional Hemispherical Reflectance
X Units: Wavelength (micrometers)
Y Units: Reflectance (percent)
wavelength	value
0.4	11.3398
0.414	11.5059
0.428	11.7229
0.442	12.0153
0.456	12.3649
0.47	12.6303
0.484	12.85
0.498	13.2116
0.512	13.5241
0.526	13.8522
0.54	14.392
0.554	15.4833
0.568	17.5194
0.582	20.2838
0.596	22.8327
0.61	24.5023
0.624	25.3894
0.638	25.9703
0.652	26.5106
0.666	27.0932
0.68	27.7999
0.694	28.5607
0.708	29.3408
0.722	30.0266
0.736	30.499
0.75	30.7007
0.764	30.7155
0.778	30.5215
0.792	30.2975
0.806	30.0214
0.82	29.7957
0.834	29.6359
0.848	29.5402
0.862	30.1834
0.876	30.3235
0.89	30.7272
0.904	30.7997
0.918	31.3685
0.932	31.9598
0.946	32.635
0.96	33.3283
0.974	33.9253
0.988	34.5424
1.002	35.0135
1.016	35.239
1.03	35.8335
1.044	36.0509
1.058	36.0483
1.072	36.4929
1.086	36.4495
1.1	36.657
1.114	36.9603
1.128	37.0792
1.142	37.1785
1.156	37.1217
1.17	37.0244
1.184	37.0485
1.198	37.0525
1.212	36.9741
1.226	37.1073
1.24	37.1004
1.254	37.6138
1.268	37.8492
1.282	38.3259
1.296	38.0569
1.31	38.3875
1.324	38.415
1.338	38.173
1.352	37.9407
1.366	37.3879
1.38	36.8102
1.394	35.7459
1.408	34.543
1.422	32.9863
1.436	30.8311
1.45	27.7837
1.464	24.902
1.478	26.9302
1.492	28.8904
1.506	29.9645
1.52	30.2332
1.534	30.2689
1.548	31.7663
1.562	33.2549
1.576	34.6121
1.59	35.5595
1.604	36.3191
1.618	36.8197
1.632	37.4292
1.646	37.6172
1.66	38.0684
1.674	38.2492
1.688	38.2868
1.702	38.216
1.716	37.7614
1.73	37.0278
1.744	35.4509
1.758	33.8794
1.772	33.3128
1.786	33.711
1.8	33.8394
1.814	34.4048
1.828	35.008
1.842	35.5493
1.856	35.9681
1.87	35.6411
1.884	34.003
1.898	30.0251
1.912	24.7115
1.926	21.4963
1.94	19.2737
1.954	17.3441
1.968	15.1835
1.982	13.4007
1.996	14.438
2.01	18.6111
2.024	22.325
2.038	25.142
2.052	27.3109
2.066	29.0417
2.08	29.7891
2.094	30.1655
2.108	30.3651
2.122	30.7972
2.136	30.96
2.15	30.9968
2.164	30.5518
2.178	29.8781
2.192	29.0766
2.206	28.1378
2.22	27.377
2.234	26.9037
2.248	26.5368
2.262	26.1091
2.276	26.2873
2.29	26.4055
2.304	26.6589
2.318	26.9746
2.332	26.8577
2.346	26.6282
2.36	25.9981
2.374	25.0045
2.388	23.613
2.402	22.0924
2.416	20.4197
2.43	18.7413
2.444	17.4677
2.458	16.6672
2.472	16.8201
2.486	17.0103
2.5	17.6336
2.509	17.6645
2.517	17.7881
2.526	17.5512
2.535	17.3349
2.543	17.0877
2.552	17.1598
2.561	16.274
2.57	17.2525
2.579	17.9529
2.588	17.5306
2.597	17.7778
2.606	17.2422
2.615	18.0147
2.624	19.0447
2.634	18.5194
2.643	18.8799
2.653	17.6439
2.662	16.9641
2.672	15.862
2.681	15.3573
2.691	13.3797
2.701	11.1858
2.711	8.4769
2.721	6.4478
2.731	5.8504
2.741	3.9964
2.751	3.4093
2.761	2.884
2.772	2.575
2.782	2.5235
2.793	2.3999
2.803	2.0188
2.814	1.9776
2.825	1.8025
2.835	1.8025
2.846	1.7613
2.857	1.7922
2.868	1.7201
2.879	1.9467
2.891	1.9158
2.902	2.1218
2.913	2.2969
2.925	2.4926
2.937	2.6471
2.948	2.6368
2.96	2.5853
2.972	2.369
2.984	2.3793
2.996	2.3793
3.008	2.3175
3.02	2.2763
3.033	2.3072
3.045	2.3484
3.058	2.3175
3.07	2.1733
3.083	2.2042
3.096	2.3278
3.109	2.4617
3.122	2.5956
3.135	2.7707
3.149	2.9561
3.162	3.1312
3.176	3.2548
3.189	3.5123
3.203	3.708
3.217	4.0376
3.231	4.4084
3.245	4.635
3.259	5.0264
3.274	5.4281
3.288	5.871
3.303	6.1903
3.318	6.6744
3.333	7.0864
3.348	7.6838
3.363	8.2812
3.378	8.8065
3.394	9.3318
3.409	9.7026
3.425	10.2691
3.441	10.8459
3.457	11.5463
3.473	12.1849
3.49	12.9574
3.506	13.6269
3.523	14.2346
3.54	14.8629
3.557	15.5118
3.574	16.1607
3.591	16.8096
3.609	17.5512
3.626	18.128
3.644	18.8078
3.662	19.6009
3.68	20.188
3.699	20.8266
3.717	21.2283
3.736	21.4652
3.755	21.5579
3.774	21.3622
3.794	21.3416
3.813	21.4652
3.833	21.4137
3.853	21.2386
3.873	21.0017
3.893	19.879
3.914	18.9829
3.935	17.922
3.956	17.5924
3.977	19.2301
3.998	19.9717
4.02	19.7245
4.042	19.2301
4.064	18.5812
4.086	17.7881
4.109	16.9126
4.132	15.965
4.155	15.0174
4.179	13.7505
4.202	12.6175
4.226	11.8553
4.251	9.7129
4.275	8.2297
4.3	6.7362
4.325	5.768
4.35	5.15
4.376	4.7895
4.402	4.6659
4.428	4.6453
4.455	4.7277
4.482	5.0161
4.509	5.2839
4.537	5.6341
4.565	6.0152
4.593	6.2727
4.622	6.5199
4.651	6.6847
4.68	6.8804
4.71	7.4778
4.74	8.0855
4.771	8.3018
4.802	8.3018
4.833	8.3739
4.865	8.7447
4.897	9.3524
4.929	10.1043
4.962	10.6811
4.996	11.1343
5.03	11.6081
5.064	11.9789
5.099	12.0716
5.134	12.1334
5.17	12.4012
5.206	12.1128
5.243	11.7214
5.281	10.403
5.319	8.7859
5.357	7.5087
5.396	7.7559
5.436	8.5387
5.476	9.1773
5.517	10.0631
5.558	10.3927
5.6	10.3412
5.643	9.4863
5.686	9.3421
5.73	8.6314
5.775	7.8177
5.82	6.2212
5.866	5.2839
5.913	4.3157
5.96	3.4814
6.009	2.7192
6.058	1.7819
6.108	2.0497
6.159	2.6368
6.21	3.6874
6.263	4.6041
6.316	5.5517
6.37	5.9328
6.426	6.1182
6.482	5.6135
6.539	6.6023
6.597	6.5302
6.657	6.283
6.717	5.7783
6.778	5.3663
6.841	5.6547
6.905	5.8504
6.97	5.974
7.036	4.738
7.103	5.2324
7.172	6.3448
7.242	6.9834
7.314	6.9216
7.387	6.6538
7.461	6.3036
7.537	6.1388
7.614	5.9225
7.694	5.5208
7.774	5.253
7.857	5.0264
7.941	4.9955
8.027	4.9337
8.115	5.0161
8.205	4.9543
8.297	5.1706
8.391	4.738
8.487	4.4084
8.585	4.1612
8.686	4.223
8.789	3.914
8.894	3.5844
9.002	3.2651
9.113	3.2239
9.226	3.1106
9.343	2.9973
9.462	2.8016
9.585	2.8634
9.71	2.7089
9.839	2.6162
9.972	2.6265
10.108	2.6368
10.247	2.6574
10.391	2.7604
10.539	2.6986
10.691	2.8016
10.848	2.8222
11.009	2.9046
11.175	3.0282
11.346	2.9458
11.522	3.0591
11.704	3.0488
11.892	2.9355
12.086	2.8634
12.287	2.8222
12.494	2.8325
12.708	2.7398
12.93	2.7398
13.16	2.5338
13.398	2.5235
13.644	2.3896
13.9	2.2866
