Name: Gaylussite Na2Ca(CO3)2 * 5H2O
Type: Mineral
Class: Borate
Subclass: None
Particle Size: Unsieved coarse powder
Sample No.: NMNH 102876-2
Owner: Smithsonian Institute, National Museum of Nat. History
Origin: Searles Lake, CA
Description: Gaylussite powder from Searles Lake, CA
Measurement: Directional Hemispherical Reflectance
X Units: Wavelength (micrometers)
Y Units: Reflectance (percent)
wavelength	value
0.4	28.5521
0.414	28.6548
0.428	29.4172
0.442	30.2578
0.456	30.9685
0.47	31.5148
0.484	32.0056
0.498	32.3652
0.512	32.7469
0.526	33.2513
0.54	33.594
0.554	33.8784
0.568	34.1334
0.582	34.3278
0.596	34.3477
0.61	34.3444
0.624	34.4867
0.638	34.4507
0.652	33.8877
0.666	33.9553
0.68	34.6486
0.694	35.3249
0.708	35.8332
0.722	36.2213
0.736	36.5281
0.75	36.7792
0.764	36.9674
0.778	37.154
0.792	37.2873
0.806	37.4868
0.82	37.57
0.834	37.6949
0.848	37.7541
0.862	37.844
0.876	37.8861
0.89	37.8995
0.904	37.7875
0.918	37.8608
0.932	37.891
0.946	37.7548
0.96	37.6092
0.974	37.4609
0.988	37.1178
1.002	36.8886
1.016	36.7149
1.03	36.8697
1.044	36.9362
1.058	36.9665
1.072	36.9094
1.086	36.8447
1.1	36.7044
1.114	36.5863
1.128	36.353
1.142	36.2463
1.156	35.7703
1.17	35.3238
1.184	34.6099
1.198	33.9177
1.212	33.5158
1.226	33.2183
1.24	33.0339
1.254	32.85
1.268	32.9429
1.282	32.7147
1.296	32.8507
1.31	32.6785
1.324	32.3341
1.338	31.7534
1.352	30.8016
1.366	29.9876
1.38	29.2361
1.394	28.7157
1.408	27.7488
1.422	26.1079
1.436	24.0208
1.45	21.6448
1.464	19.4353
1.478	17.3978
1.492	15.8034
1.506	15.5059
1.52	15.0653
1.534	14.704
1.548	14.1732
1.562	13.733
1.576	13.7327
1.59	13.9678
1.604	14.1977
1.618	14.3581
1.632	14.3804
1.646	14.2404
1.66	13.8814
1.674	13.3173
1.688	12.804
1.702	12.192
1.716	11.7873
1.73	11.3374
1.744	10.8332
1.758	10.4172
1.772	10.163
1.786	9.95
1.8	9.9162
1.814	10.0281
1.828	10.3074
1.842	10.5801
1.856	10.4807
1.87	10.3005
1.884	9.7285
1.898	9.0212
1.912	8.1669
1.926	7.5948
1.94	7.0069
1.954	6.4225
1.968	6.1454
1.982	6.144
1.996	6.347
2.01	6.4779
2.024	6.6375
2.038	6.8714
2.052	6.9471
2.066	7.2098
2.08	7.2426
2.094	7.3503
2.108	7.4012
2.122	7.4807
2.136	7.5113
2.15	7.5789
2.164	7.6376
2.178	7.8192
2.192	8.0505
2.206	8.3358
2.22	8.8208
2.234	9.0698
2.248	9.1146
2.262	8.9517
2.276	8.8809
2.29	8.6021
2.304	8.3713
2.318	8.0639
2.332	7.8461
2.346	7.8346
2.36	7.6934
2.374	7.4508
2.388	7.2134
2.402	7.0111
2.416	6.6395
2.43	6.171
2.444	5.8509
2.458	5.5762
2.472	5.6413
2.486	5.5905
2.5	5.4796
2.509	5.3251
2.517	5.3354
2.526	5.253
2.535	5.3354
2.543	4.8513
2.552	5.0882
2.561	5.1294
2.57	5.1603
2.579	5.2118
2.588	5.1294
2.597	5.3251
2.606	5.2118
2.615	5.2324
2.624	5.1706
2.634	5.047
2.643	4.841
2.653	4.738
2.662	4.6556
2.672	4.3157
2.681	4.2333
2.691	3.8934
2.701	3.5432
2.711	3.5226
2.721	3.0797
2.731	2.8016
2.741	2.6368
2.751	2.3278
2.761	2.1527
2.772	1.9055
2.782	1.648
2.793	1.5141
2.803	1.4008
2.814	1.0712
2.825	1.0712
2.835	1.1021
2.846	1.0403
2.857	1.03
2.868	1.03
2.879	0.9991
2.891	0.8343
2.902	0.927
2.913	1.0094
2.925	0.9476
2.937	0.8961
2.948	0.927
2.96	0.8137
2.972	0.9785
2.984	0.9682
2.996	1.2154
3.008	1.3081
3.02	1.1639
3.033	1.1536
3.045	1.3699
3.058	1.2463
3.07	1.3699
3.083	1.3905
3.096	1.2978
3.109	1.4317
3.122	1.3287
3.135	1.3802
3.149	1.3081
3.162	1.3802
3.176	1.3081
3.189	1.3184
3.203	1.3699
3.217	1.3699
3.231	1.4626
3.245	1.4008
3.259	1.3802
3.274	1.4111
3.288	1.4214
3.303	1.5244
3.318	1.5141
3.333	1.6583
3.348	1.8746
3.363	2.0085
3.378	2.06
3.394	2.0703
3.409	2.1424
3.425	2.1321
3.441	2.1321
3.457	2.2042
3.473	2.1218
3.49	2.1218
3.506	2.1424
3.523	2.163
3.54	2.1218
3.557	2.1939
3.574	2.1939
3.591	2.1939
3.609	2.1939
3.626	2.1527
3.644	2.1733
3.662	2.2248
3.68	2.1939
3.699	2.2454
3.717	2.1733
3.736	2.2248
3.755	2.1836
3.774	2.2969
3.794	2.2351
3.813	2.2969
3.833	2.2248
3.853	2.3175
3.873	2.2763
3.893	2.3278
3.914	2.2351
3.935	2.1939
3.956	2.1733
3.977	2.1115
3.998	2.1115
4.02	2.163
4.042	2.1424
4.064	2.1939
4.086	2.1836
4.109	2.2145
4.132	2.2042
4.155	2.266
4.179	2.2042
4.202	2.2351
4.226	2.2351
4.251	2.3278
4.275	2.2866
4.3	2.3072
4.325	2.3072
4.35	2.3175
4.376	2.2969
4.402	2.3072
4.428	2.2969
4.455	2.2763
4.482	2.3175
4.509	2.3072
4.537	2.3381
4.565	2.3793
4.593	2.4617
4.622	2.5029
4.651	2.5853
4.68	2.6059
4.71	2.678
4.74	2.678
4.771	2.6883
4.802	2.7192
4.833	2.6883
4.865	2.7192
4.897	2.7089
4.929	2.6574
4.962	2.5956
4.996	2.575
5.03	2.5132
5.064	2.472
5.099	2.3999
5.134	2.3381
5.17	2.2557
5.206	2.2145
5.243	2.1321
5.281	2.0497
5.319	1.957
5.357	1.8231
5.396	1.6995
5.436	1.6068
5.476	1.4935
5.517	1.3699
5.558	1.2875
5.6	1.2154
5.643	1.1845
5.686	1.0918
5.73	1.0094
5.775	0.9064
5.82	0.8961
5.866	0.8652
5.913	0.8446
5.96	0.9785
6.009	1.0815
6.058	1.1536
6.108	1.0609
6.159	1.1021
6.21	1.1227
6.263	1.0918
6.316	0.9991
6.37	0.927
6.426	0.8652
6.482	0.7828
6.539	0.824
6.597	1.0403
6.657	1.8025
6.717	4.017
6.778	7.6735
6.841	11.1652
6.905	12.5145
6.97	12.2673
7.036	10.7326
7.103	8.7653
7.172	6.3654
7.242	5.047
7.314	4.3878
7.387	4.017
7.461	3.7904
7.537	3.6153
7.614	3.5638
7.694	3.5123
7.774	3.4093
7.857	3.399
7.941	3.3578
8.027	3.3166
8.115	3.3166
8.205	3.3372
8.297	3.2754
8.391	3.2548
8.487	3.193
8.585	3.1518
8.686	3.09
8.789	3.0694
8.894	2.9664
9.002	2.9252
9.113	2.884
9.226	2.781
9.343	2.6265
9.462	2.6162
9.585	2.6162
9.71	2.4514
9.839	2.3484
9.972	2.1836
10.108	2.0291
10.247	1.8437
10.391	1.6686
10.539	1.4729
10.691	1.3081
10.848	1.4111
11.009	1.7716
11.175	1.8643
11.346	5.1603
11.522	3.1106
11.704	2.6677
11.892	2.266
12.086	1.9879
12.287	1.8025
12.494	1.9879
12.708	1.9261
12.93	1.957
13.16	1.7304
13.398	1.7613
13.644	1.5965
13.9	2.369
