Name: Basalt
Type: Rock
Class: Igneous
Subclass: Mafic
Particle Size: Whole rock chips
Sample No.: ba1b1f1
Owner: Larry Rowan, USGS
Origin: Sweimah, Jordan
Description: dark gray basalt
Measurement: Reflectance
X Units: Wavelength (micrometers)
Y Units: Reflectance (percent)
wavelength	value
0.4	9.3
0.408	9.2
0.416	9.2
0.424	8.9
0.432	8.8
0.44	8.8
0.448	8.4
0.456	8.2
0.464	7.9
0.472	7.7
0.48	7.6
0.488	7.6
0.496	7.7
0.504	7.6
0.512	7.6
0.52	7.4
0.528	7.3
0.536	7.3
0.544	7.4
0.552	7.3
0.56	7.4
0.568	7.7
0.576	7.7
0.584	7.7
0.592	7.7
0.6	7.6
0.608	7.8
0.616	7.7
0.624	7.9
0.632	7.7
0.64	7.9
0.648	7.9
0.656	8.1
0.664	8.2
0.672	8.1
0.68	8.2
0.688	8.2
0.696	8.1
0.704	8.3
0.712	8.4
0.72	8.5
0.728	8.5
0.736	8.8
0.744	8.5
0.752	8.8
0.76	8.8
0.768	8.9
0.776	8.9
0.784	8.9
0.792	9.2
0.8	9.5
0.832	9.6
0.864	9.6
0.896	9.8
0.928	9.6
0.96	9.4
0.992	9.5
1.024	9.4
1.056	9.4
1.088	9.6
1.12	9.5
1.152	9.4
1.184	9.3
1.216	9.4
1.248	9.3
1.28	9
1.312	9.2
1.344	9
1.376	8.9
1.408	8.7
1.44	8.5
1.472	8.5
1.504	8.5
1.536	8.8
1.568	8.8
1.6	8.8
1.632	8.8
1.664	8.8
1.696	8.9
1.728	8.8
1.76	8.5
1.792	8.5
1.824	8.5
1.856	8.4
1.888	7.4
1.92	6.7
1.952	7.1
1.984	7.4
2.016	7.8
2.048	7.9
2.08	8.1
2.102	8.7
2.109	8.93
2.116	8.52
2.123	8.73
2.13	8.62
2.137	8.51
2.144	8.65
2.151	8.59
2.158	8.63
2.165	8.44
2.173	8.6
2.18	8.73
2.187	8.48
2.195	8.67
2.202	8.42
2.21	8.6
2.217	8.63
2.225	8.44
2.232	8.46
2.24	8.65
2.248	8.31
2.256	8.53
2.264	8.62
2.272	8.37
2.28	8.56
2.288	8.36
2.296	8.29
2.304	8.35
2.312	8.17
2.32	8.36
2.329	8.26
2.337	8.27
2.346	8.33
2.354	8.22
2.363	8.09
2.371	8.09
2.38	8.02
2.389	7.99
2.398	8.08
2.406	7.98
2.415	7.8
2.424	7.68
2.434	7.89
2.443	7.56
2.452	7.71
2.461	7.73
2.471	7.73
2.48	7.62
2.49	7.43
2.499	7.46
2.509	7.49
2.519	7.18
2.528	7.21
2.538	7.24
2.548	7.3
2.558	7.39
2.569	7.19
2.579	7.23
2.589	7.09
2.599	7.08
2.61	7.31
2.62	7.29
2.631	7.19
2.642	7.03
2.653	6.97
2.664	7.05
2.675	6.79
2.686	6.49
2.697	6.15
2.708	5.71
2.719	5.08
2.731	4.76
2.742	4.25
2.754	4.15
2.766	3.96
2.778	3.88
2.79	4.01
2.802	3.84
2.814	3.82
2.826	3.81
2.838	3.91
2.851	3.83
2.864	3.71
2.876	3.96
2.889	4.02
2.902	3.8
2.915	3.97
2.928	3.75
2.942	3.76
2.955	3.83
2.968	4.03
2.982	3.8
2.996	4.02
3.01	3.94
3.024	3.98
3.038	4.1
3.052	4.07
3.067	4.07
3.081	4.11
3.096	4.03
3.111	4.17
3.126	4.19
3.141	4.37
3.156	4.29
3.172	4.42
3.187	4.44
3.203	4.51
3.219	4.57
3.235	4.7
3.251	4.71
3.268	4.83
3.284	4.86
3.301	4.9
3.318	4.92
3.335	5.07
3.352	5.02
3.37	5.22
3.387	5.27
3.405	5.39
3.423	5.45
3.441	5.54
3.46	5.63
3.478	5.6
3.497	5.75
3.516	5.78
3.535	5.89
3.554	5.95
3.574	6.07
3.594	6.11
3.614	6.19
3.634	6.27
3.655	6.26
3.675	6.3
3.696	6.4
3.717	6.36
3.739	6.41
3.761	6.43
3.782	6.43
3.805	6.48
3.827	6.49
3.85	6.39
3.873	6.45
3.896	6.41
3.92	6.44
3.944	6.35
3.968	6.37
3.992	6.33
4.017	6.33
4.042	6.24
4.067	6.32
4.093	6.16
4.119	6.19
4.145	6.16
4.172	6.1
4.199	5.98
4.226	6.06
4.254	5.95
4.282	5.95
4.311	5.79
4.34	5.75
4.369	5.78
4.398	5.68
4.428	5.64
4.459	5.55
4.49	5.46
4.521	5.39
4.553	5.37
4.585	5.28
4.618	5.26
4.651	5.03
4.684	5.06
4.719	5.04
4.753	4.97
4.788	4.94
4.824	4.88
4.86	4.79
4.897	4.76
4.934	4.74
4.972	4.69
5.01	4.67
5.049	4.58
5.089	4.51
5.129	4.52
5.17	4.43
5.212	4.35
5.254	4.29
5.297	4.26
5.341	4.2
5.385	4.1
5.43	4.08
5.476	3.98
5.523	3.86
5.57	3.78
5.618	3.7
5.667	3.64
5.717	3.61
5.768	3.48
5.82	3.42
5.873	3.17
5.926	3
5.981	2.86
6.037	2.71
6.094	2.66
6.151	2.81
6.21	3.07
6.27	3.11
6.332	3.2
6.394	3.19
6.458	3.26
6.523	3.19
6.589	3.2
6.657	3.05
6.726	3.05
6.796	3.05
6.868	3.02
6.942	3.03
7.017	3
7.094	2.87
7.172	2.84
7.252	2.82
7.334	2.71
7.418	2.58
7.504	2.53
7.592	2.44
7.682	2.36
7.774	2.25
7.869	2.2
7.965	2.18
8.064	2.25
8.166	2.56
8.27	3.28
8.377	4.22
8.487	4.75
8.599	5.44
8.715	6.18
8.834	6.78
8.956	7.63
9.081	8.12
9.21	8.88
9.343	10.57
9.479	11.61
9.62	11.86
9.765	11.12
9.914	10.25
10.068	9.12
10.227	8.51
10.391	7.81
10.56	7.45
10.735	7.15
10.916	6.99
11.103	6.55
11.297	6.22
11.497	5.53
11.704	4.7
11.92	4.23
12.143	3.71
12.375	3.19
12.616	2.9
12.866	2.78
13.126	2.72
13.398	2.75
13.68	2.82
13.975	2.92
