Name: Basalt
Type: Rock
Class: Igneous
Subclass: Mafic
Particle Size: Whole rock chips
Sample No.: ba9c3c
Owner: Larry Rowan, USGS
Origin: Wadi Mujib, Jordan
Description: dark gray vesicular basalt
Measurement: Reflectance
X Units: Wavelength (micrometers)
Y Units: Reflectance (percent)
wavelength	value
0.4	17.77
0.408	17.47
0.416	17.97
0.424	17.67
0.432	17.47
0.44	17.27
0.448	17.07
0.456	16.57
0.464	16.17
0.472	16.07
0.48	15.77
0.488	15.67
0.496	16.07
0.504	15.57
0.512	15.67
0.52	15.77
0.528	15.77
0.536	15.77
0.544	16.07
0.552	16.07
0.56	16.37
0.568	16.37
0.576	16.77
0.584	16.37
0.592	16.37
0.6	16.37
0.608	16.57
0.616	16.17
0.624	16.37
0.632	16.27
0.64	16.37
0.648	16.17
0.656	16.17
0.664	16.17
0.672	16.07
0.68	16.07
0.688	16.07
0.696	15.77
0.704	16.07
0.712	16.07
0.72	16.07
0.728	16.07
0.736	16.07
0.744	15.77
0.752	15.77
0.76	15.77
0.768	15.77
0.776	15.67
0.784	15.57
0.792	15.67
0.8	15.97
0.832	15.47
0.864	15.07
0.896	14.97
0.928	14.77
0.96	14.37
0.992	14.27
1.024	14.17
1.056	13.97
1.088	13.97
1.12	13.77
1.152	13.47
1.184	13.27
1.216	13.27
1.248	13.17
1.28	12.77
1.312	12.77
1.344	12.77
1.376	12.57
1.408	12.57
1.44	12.37
1.472	12.17
1.504	12.07
1.536	12.17
1.568	11.77
1.6	11.97
1.632	11.67
1.664	11.67
1.696	11.67
1.728	11.57
1.76	11.17
1.792	11.17
1.824	11.07
1.856	10.97
1.888	10.67
1.92	10.47
1.952	10.37
1.984	10.57
2.016	10.57
2.048	10.47
2.08	10.47
2.102	10.34
2.109	10.32
2.116	10.42
2.123	10.36
2.13	10.12
2.137	10.21
2.144	10.07
2.151	10.07
2.158	9.73
2.165	10.26
2.173	10.63
2.18	10.08
2.187	9.96
2.195	9.97
2.202	10.01
2.21	10
2.217	9.77
2.225	9.77
2.232	9.83
2.24	9.95
2.248	9.81
2.256	9.89
2.264	9.97
2.272	9.57
2.28	9.68
2.288	9.91
2.296	9.7
2.304	9.85
2.312	9.71
2.32	9.73
2.329	9.74
2.337	9.36
2.346	9.66
2.354	9.46
2.363	9.47
2.371	9.6
2.38	9.48
2.389	9.57
2.398	9.08
2.406	9.22
2.415	9.38
2.424	9.36
2.434	9.15
2.443	9.17
2.452	9.17
2.461	9.19
2.471	9.21
2.48	9.02
2.49	8.92
2.499	8.84
2.509	8.87
2.519	8.94
2.528	8.82
2.538	8.87
2.548	8.7
2.558	8.42
2.569	8.28
2.579	8.61
2.589	8.38
2.599	8.54
2.61	8.19
2.62	7.9
2.631	7.96
2.642	8.48
2.653	7.88
2.664	7.54
2.675	7.38
2.686	7.31
2.697	6.92
2.708	6.31
2.719	5.51
2.731	6.27
2.742	5.65
2.754	5.1
2.766	5.47
2.778	5.53
2.79	5.59
2.802	5.18
2.814	5.57
2.826	5.45
2.838	5.35
2.851	5.45
2.864	5.59
2.876	5.45
2.889	5.56
2.902	5.51
2.915	5.54
2.928	5.55
2.942	5.33
2.955	5.53
2.968	5.6
2.982	5.67
2.996	5.6
3.01	5.61
3.024	5.57
3.038	5.7
3.052	5.6
3.067	5.55
3.081	5.66
3.096	5.61
3.111	5.7
3.126	5.71
3.141	5.74
3.156	5.73
3.172	5.84
3.187	5.95
3.203	5.87
3.219	5.99
3.235	6.05
3.251	6.03
3.268	6.09
3.284	6.1
3.301	6.16
3.318	6.16
3.335	6.27
3.352	6.41
3.37	6.4
3.387	6.54
3.405	6.49
3.423	6.68
3.441	6.57
3.46	6.62
3.478	6.61
3.497	6.66
3.516	6.67
3.535	6.71
3.554	6.71
3.574	6.81
3.594	6.73
3.614	6.82
3.634	6.74
3.655	6.75
3.675	6.87
3.696	6.64
3.717	6.79
3.739	6.86
3.761	6.8
3.782	6.79
3.805	6.78
3.827	6.74
3.85	6.78
3.873	6.83
3.896	6.69
3.92	6.7
3.944	6.65
3.968	6.67
3.992	6.62
4.017	6.65
4.042	6.74
4.067	6.71
4.093	6.67
4.119	6.67
4.145	6.65
4.172	6.69
4.199	6.5
4.226	5.59
4.254	6.22
4.282	5.77
4.311	6.24
4.34	6.43
4.369	6.38
4.398	6.38
4.428	6.45
4.459	6.37
4.49	6.35
4.521	6.37
4.553	6.26
4.585	6.23
4.618	6.08
4.651	6.04
4.684	6.02
4.719	5.96
4.753	5.89
4.788	5.81
4.824	5.76
4.86	5.73
4.897	5.67
4.934	5.65
4.972	5.59
5.01	5.52
5.049	5.6
5.089	5.51
5.129	5.42
5.17	5.5
5.212	5.33
5.254	5.43
5.297	5.49
5.341	5.27
5.385	5.37
5.43	5.27
5.476	5.04
5.523	5.09
5.57	4.77
5.618	5.02
5.667	4.86
5.717	4.66
5.768	4.49
5.82	4.06
5.873	3.79
5.926	3.83
5.981	3.71
6.037	3.38
6.094	3.71
6.151	3.69
6.21	4.12
6.27	4.45
6.332	4.23
6.394	4.59
6.458	4.98
6.523	4.9
6.589	4.54
6.657	4.81
6.726	4.84
6.796	4.75
6.868	4.52
6.942	4.65
7.017	4.62
7.094	4.74
7.172	4.34
7.252	4.24
7.334	4
7.418	4.05
7.504	4.03
7.592	3.98
7.682	3.93
7.774	3.88
7.869	3.67
7.965	3.75
8.064	3.7
8.166	3.63
8.27	3.53
8.377	3.7
8.487	3.9
8.599	4.49
8.715	5.41
8.834	6.71
8.956	9.06
9.081	10.25
9.21	10.38
9.343	11.04
9.479	11.58
9.62	11.52
9.765	10.7
9.914	10.24
10.068	9.58
10.227	9.6
10.391	9.3
10.56	8.71
10.735	8.69
10.916	9.15
11.103	8.91
11.297	8.91
11.497	8.05
11.704	6.84
11.92	5.88
12.143	5.12
12.375	4.57
12.616	4.08
12.866	3.79
13.126	3.53
13.398	3.3
13.68	3.21
13.975	3.13
