Name: Pinnoite MgB2O4 * 3H2O
Type: Mineral
Class: Borate
Subclass: None
Particle Size: Unsieved coarse powder
Sample No.: NMNH 123943
Owner: Smithsonian Institute, National Museum of Nat. History
Origin: Smithsonian Institute, National Museum of Nat. History
Description: Pinnoite - synthetic
Measurement: Directional Hemispherical Reflectance
X Units: Wavelength (micrometers)
Y Units: Reflectance (percent)
wavelength	value
0.4	55.5247
0.414	55.5476
0.428	55.6371
0.442	55.7432
0.456	55.9173
0.47	55.9968
0.484	56.1084
0.498	56.2843
0.512	56.3088
0.526	56.3589
0.54	56.3945
0.554	56.397
0.568	56.4079
0.582	56.4076
0.596	56.389
0.61	56.3589
0.624	56.3059
0.638	56.2548
0.652	56.1719
0.666	56.0883
0.68	56.0048
0.694	55.902
0.708	55.8148
0.722	55.7349
0.736	55.6542
0.75	55.5358
0.764	55.4686
0.778	55.4936
0.792	55.4376
0.806	55.3821
0.82	55.3042
0.834	55.3072
0.848	55.289
0.862	55.3037
0.876	55.5527
0.89	55.4098
0.904	55.5662
0.918	55.486
0.932	55.5203
0.946	55.5026
0.96	55.1915
0.974	54.6707
0.988	53.5481
1.002	54.9768
1.016	55.1595
1.03	55.3452
1.044	55.3538
1.058	55.4615
1.072	55.478
1.086	55.4688
1.1	55.3505
1.114	55.4955
1.128	55.4464
1.142	55.3589
1.156	54.9619
1.17	54.6057
1.184	54.546
1.198	54.2885
1.212	54.1565
1.226	53.8818
1.24	53.2962
1.254	53.3558
1.268	53.0092
1.282	53.1403
1.296	53.3025
1.31	53.0299
1.324	52.1356
1.338	51.3997
1.352	50.1627
1.366	49.2613
1.38	48.6525
1.394	46.4489
1.408	37.988
1.422	38.6151
1.436	31.976
1.45	32.5887
1.464	36.8277
1.478	36.3334
1.492	35.9141
1.506	35.3397
1.52	34.9759
1.534	36.4032
1.548	36.5063
1.562	36.9699
1.576	39.7346
1.59	40.3403
1.604	40.181
1.618	39.2112
1.632	38.0878
1.646	37.1868
1.66	37.3629
1.674	37.6733
1.688	38.1215
1.702	38.3369
1.716	38.647
1.73	39.2508
1.744	38.3691
1.758	38.0289
1.772	38.1015
1.786	38.071
1.8	38.0616
1.814	38.3308
1.828	38.2702
1.842	38.2885
1.856	37.9781
1.87	37.4088
1.884	36.0655
1.898	33.5491
1.912	30.1863
1.926	27.9549
1.94	26.8997
1.954	26.4119
1.968	26.6083
1.982	26.5488
1.996	26.9633
2.01	27.4503
2.024	28.1188
2.038	28.4771
2.052	26.9997
2.066	25.8129
2.08	26.7188
2.094	26.7256
2.108	23.2502
2.122	19.8573
2.136	20.2517
2.15	24.1305
2.164	24.1876
2.178	23.0056
2.192	22.346
2.206	21.863
2.22	22.0503
2.234	23.2564
2.248	24.1535
2.262	25.2313
2.276	26.4323
2.29	26.568
2.304	26.4317
2.318	26.0686
2.332	25.2119
2.346	24.7378
2.36	23.7717
2.374	22.5853
2.388	21.1083
2.402	20.2884
2.416	19.7554
2.43	18.9884
2.444	17.9695
2.458	17.061
2.472	16.7346
2.486	16.5827
2.5	16.0886
2.509	15.6354
2.517	15.2852
2.526	14.4509
2.535	14.6672
2.543	14.9041
2.552	15.3882
2.561	14.2758
2.57	14.7805
2.579	15.7178
2.588	14.8011
2.597	14.8938
2.606	13.8947
2.615	13.7196
2.624	14.0698
2.634	13.184
2.643	13.1222
2.653	12.1231
2.662	11.3094
2.672	10.1661
2.681	9.8159
2.691	8.7653
2.701	7.6735
2.711	5.8298
2.721	4.5011
2.731	3.9552
2.741	2.6162
2.751	2.163
2.761	1.5244
2.772	1.133
2.782	0.7725
2.793	0.7313
2.803	1.1227
2.814	1.0506
2.825	1.2154
2.835	1.0197
2.846	0.9373
2.857	0.824
2.868	0.7828
2.879	0.6695
2.891	0.5974
2.902	0.4635
2.913	0.4738
2.925	0.5562
2.937	0.7931
2.948	0.9167
2.96	0.7416
2.972	0.7416
2.984	0.7004
2.996	0.7828
3.008	0.8343
3.02	0.7622
3.033	0.824
3.045	0.9167
3.058	0.6901
3.07	0.7931
3.083	0.824
3.096	0.8549
3.109	0.9682
3.122	1.0197
3.135	1.1742
3.149	1.1227
3.162	1.1742
3.176	1.3287
3.189	1.3596
3.203	1.4832
3.217	1.5965
3.231	1.6686
3.245	1.6995
3.259	1.7819
3.274	1.7922
3.288	1.854
3.303	2.0291
3.318	2.1424
3.333	2.2969
3.348	2.4617
3.363	2.5235
3.378	2.6986
3.394	2.7295
3.409	2.9252
3.425	3.0385
3.441	3.193
3.457	3.4402
3.473	3.6153
3.49	3.7801
3.506	3.914
3.523	3.914
3.54	4.0273
3.557	4.0685
3.574	4.0788
3.591	4.1921
3.609	4.2333
3.626	4.3981
3.644	4.4187
3.662	4.429
3.68	4.4393
3.699	4.4805
3.717	4.5011
3.736	4.4702
3.755	4.3363
3.774	4.223
3.794	4.0067
3.813	3.8522
3.833	3.6668
3.853	3.4608
3.873	3.296
3.893	3.0694
3.914	2.8737
3.935	2.781
3.956	2.7192
3.977	2.9252
3.998	3.2651
4.02	3.605
4.042	3.7595
4.064	3.8213
4.086	3.8934
4.109	4.0582
4.132	4.1406
4.155	4.3157
4.179	4.429
4.202	4.4496
4.226	4.6453
4.251	4.4599
4.275	4.4599
4.3	4.3466
4.325	4.2024
4.35	4.1406
4.376	4.0479
4.402	4.1612
4.428	4.1509
4.455	4.1715
4.482	4.1921
4.509	4.2024
4.537	4.2333
4.565	4.2745
4.593	4.3363
4.622	4.3466
4.651	4.4496
4.68	4.4908
4.71	4.4393
4.74	4.3363
4.771	4.2333
4.802	4.1406
4.833	4.0582
4.865	3.914
4.897	3.8728
4.929	3.914
4.962	3.914
4.996	3.9243
5.03	3.9037
5.064	3.7801
5.099	3.6874
5.134	3.5432
5.17	3.4299
5.206	3.296
5.243	3.3475
5.281	3.3269
5.319	3.4402
5.357	3.4299
5.396	3.4711
5.436	3.4299
5.476	3.2239
5.517	3.193
5.558	3.0385
5.6	2.9046
5.643	2.5441
5.686	2.5544
5.73	2.4102
5.775	2.266
5.82	1.854
5.866	1.7201
5.913	1.5347
5.96	1.3081
6.009	1.2463
6.058	1.1742
6.108	1.0712
6.159	1.2463
6.21	1.3493
6.263	1.4008
6.316	1.339
6.37	1.2051
6.426	1.0918
6.482	0.9476
6.539	0.8961
6.597	0.7622
6.657	0.7622
6.717	0.6592
6.778	0.5871
6.841	0.618
6.905	0.6592
6.97	0.5974
7.036	0.5665
7.103	0.5871
7.172	0.5562
7.242	0.5974
7.314	0.5768
7.387	0.6386
7.461	0.7622
7.537	1.133
7.614	1.2051
7.694	1.1433
7.774	0.9888
7.857	0.7828
7.941	0.7931
8.027	0.9682
8.115	1.2463
8.205	1.6171
8.297	2.0497
8.391	2.1527
8.487	2.0806
8.585	1.6274
8.686	1.3699
8.789	1.03
8.894	0.927
9.002	0.6695
9.113	0.7004
9.226	1.5141
9.343	1.7922
9.462	1.648
9.585	1.648
9.71	1.5965
9.839	1.2463
9.972	1.4523
10.108	1.9776
10.247	2.6368
10.391	2.9561
10.539	2.7398
10.691	2.1733
10.848	1.9673
11.009	1.7613
11.175	1.6892
11.346	1.5965
11.522	1.9261
11.704	2.3381
11.892	2.1939
12.086	1.9776
12.287	1.6274
12.494	1.8746
12.708	1.9467
12.93	1.8952
13.16	1.751
13.398	1.6686
13.644	1.5553
13.9	1.4935
