Name: Basalt
Type: Rock
Class: Igneous
Subclass: Mafic
Particle Size: Whole rock chips
Sample No.: ba1d1c
Owner: Larry Rowan, USGS
Origin: Sweimah, Jordan
Description: dark gray basalt
Measurement: Reflectance
X Units: Wavelength (micrometers)
Y Units: Reflectance (percent)
wavelength	value
0.4	13.3
0.408	13.3
0.416	13.4
0.424	13
0.432	12.9
0.44	12.7
0.448	12.4
0.456	11.9
0.464	11.9
0.472	11.6
0.48	11.8
0.488	11.2
0.496	11.5
0.504	11.5
0.512	11.5
0.52	11.6
0.528	11.5
0.536	11.6
0.544	11.5
0.552	11.5
0.56	11.3
0.568	11.6
0.576	11.8
0.584	11.8
0.592	11.8
0.6	11.6
0.608	11.6
0.616	11.5
0.624	11.8
0.632	11.8
0.64	11.9
0.648	11.8
0.656	11.8
0.664	11.8
0.672	11.8
0.68	11.8
0.688	11.8
0.696	11.5
0.704	11.9
0.712	11.8
0.72	11.8
0.728	11.8
0.736	12.2
0.744	11.9
0.752	11.8
0.76	12
0.768	12.2
0.776	12
0.784	12.2
0.792	12
0.8	12.3
0.832	12.2
0.864	12.1
0.896	12.1
0.928	11.8
0.96	11.6
0.992	11.6
1.024	11.2
1.056	11.4
1.088	11.1
1.12	11.1
1.152	11
1.184	10.9
1.216	10.7
1.248	10.5
1.28	10.3
1.312	10.3
1.344	10.3
1.376	10.1
1.408	10
1.44	9.9
1.472	9.8
1.504	9.6
1.536	9.8
1.568	9.5
1.6	9.6
1.632	9.4
1.664	9.4
1.696	9.4
1.728	9.3
1.76	9
1.792	9
1.824	8.9
1.856	8.9
1.888	8.7
1.92	8.7
1.952	8.4
1.984	8.5
2.016	8.5
2.048	8.4
2.08	8.4
2.102	8.62
2.109	8.66
2.116	8.8
2.123	8.7
2.13	8.58
2.137	8.37
2.144	8.68
2.151	8.38
2.158	8.49
2.165	8.48
2.173	8.3
2.18	8.63
2.187	8.36
2.195	8.53
2.202	8.37
2.21	8.39
2.217	8.5
2.225	8.27
2.232	8.52
2.24	8.39
2.248	8.34
2.256	8.3
2.264	8.18
2.272	8.27
2.28	8.25
2.288	8.32
2.296	8.22
2.304	8.29
2.312	8.22
2.32	8.25
2.329	8.2
2.337	8.42
2.346	8.37
2.354	8.28
2.363	8.03
2.371	8.27
2.38	8.11
2.389	7.94
2.398	8.09
2.406	8.02
2.415	8.13
2.424	7.94
2.434	7.99
2.443	7.9
2.452	8.06
2.461	8.19
2.471	7.96
2.48	7.85
2.49	7.7
2.499	7.91
2.509	7.89
2.519	7.77
2.528	7.76
2.538	7.94
2.548	7.97
2.558	7.88
2.569	7.81
2.579	7.77
2.589	7.68
2.599	7.83
2.61	7.69
2.62	7.57
2.631	7.79
2.642	7.49
2.653	7.69
2.664	7.48
2.675	7.48
2.686	7.33
2.697	7.07
2.708	6.92
2.719	6.42
2.731	6.21
2.742	6.4
2.754	6.05
2.766	5.78
2.778	5.82
2.79	5.63
2.802	5.57
2.814	5.6
2.826	5.84
2.838	5.64
2.851	5.78
2.864	5.67
2.876	5.57
2.889	5.68
2.902	5.73
2.915	5.73
2.928	5.57
2.942	5.56
2.955	5.6
2.968	5.66
2.982	5.8
2.996	5.64
3.01	5.74
3.024	5.77
3.038	5.73
3.052	5.75
3.067	5.7
3.081	5.77
3.096	5.82
3.111	5.65
3.126	5.75
3.141	5.85
3.156	5.81
3.172	5.82
3.187	5.98
3.203	5.9
3.219	6.01
3.235	6.02
3.251	5.98
3.268	5.97
3.284	6.03
3.301	6.08
3.318	6.12
3.335	6.2
3.352	6.14
3.37	6.21
3.387	6.31
3.405	6.38
3.423	6.4
3.441	6.37
3.46	6.3
3.478	6.37
3.497	6.44
3.516	6.37
3.535	6.33
3.554	6.31
3.574	6.35
3.594	6.39
3.614	6.38
3.634	6.5
3.655	6.4
3.675	6.43
3.696	6.49
3.717	6.43
3.739	6.47
3.761	6.43
3.782	6.51
3.805	6.47
3.827	6.47
3.85	6.37
3.873	6.48
3.896	6.4
3.92	6.43
3.944	6.35
3.968	6.36
3.992	6.34
4.017	6.37
4.042	6.46
4.067	6.48
4.093	6.47
4.119	6.55
4.145	6.4
4.172	6.47
4.199	6.45
4.226	6
4.254	6.34
4.282	6.1
4.311	6.21
4.34	6.39
4.369	6.37
4.398	6.42
4.428	6.4
4.459	6.4
4.49	6.34
4.521	6.41
4.553	6.28
4.585	6.28
4.618	6.22
4.651	6.19
4.684	6.13
4.719	6.11
4.753	6.07
4.788	6.08
4.824	5.99
4.86	5.93
4.897	5.88
4.934	5.85
4.972	5.77
5.01	5.72
5.049	5.72
5.089	5.61
5.129	5.64
5.17	5.56
5.212	5.54
5.254	5.5
5.297	5.46
5.341	5.39
5.385	5.34
5.43	5.25
5.476	5.15
5.523	5.11
5.57	5.02
5.618	4.98
5.667	4.95
5.717	4.91
5.768	4.88
5.82	4.78
5.873	4.66
5.926	4.46
5.981	4.26
6.037	4.1
6.094	4.09
6.151	4.16
6.21	4.39
6.27	4.58
6.332	4.65
6.394	4.73
6.458	4.71
6.523	4.6
6.589	4.53
6.657	4.45
6.726	4.47
6.796	4.45
6.868	4.35
6.942	4.35
7.017	4.32
7.094	4.36
7.172	4.26
7.252	4.23
7.334	4.16
7.418	4.04
7.504	3.87
7.592	3.77
7.682	3.75
7.774	3.64
7.869	3.5
7.965	3.41
8.064	3.36
8.166	3.33
8.27	3.62
8.377	3.9
8.487	4.19
8.599	4.74
8.715	5.5
8.834	6.38
8.956	7.59
9.081	8.38
9.21	9.03
9.343	9.94
9.479	10.7
9.62	10.93
9.765	10.52
9.914	10.01
10.068	9.66
10.227	9.9
10.391	9.53
10.56	9.77
10.735	9.83
10.916	9.62
11.103	9.08
11.297	8.46
11.497	7.39
11.704	6.32
11.92	5.54
12.143	4.97
12.375	4.25
12.616	3.85
12.866	3.67
13.126	3.5
13.398	3.5
13.68	3.54
13.975	3.35
