Name: Basalt
Type: Rock
Class: Igneous
Subclass: Mafic
Particle Size: Whole rock chips
Sample No.: ba9a1f
Owner: Larry Rowan, USGS
Origin: Wadi Salima, Jordan
Description: dark gray vesicular basalt
Measurement: Reflectance
X Units: Wavelength (micrometers)
Y Units: Reflectance (percent)
wavelength	value
0.4	8.4
0.408	8.4
0.416	8.4
0.424	7.8
0.432	7.7
0.44	7.5
0.448	7.2
0.456	6.8
0.464	7
0.472	6.6
0.48	6.4
0.488	6.2
0.496	6.4
0.504	6.1
0.512	6.2
0.52	6.1
0.528	6.1
0.536	6
0.544	6
0.552	6.2
0.56	5.9
0.568	6
0.576	5.6
0.584	6
0.592	6.1
0.6	5.9
0.608	6.1
0.616	6
0.624	6
0.632	6
0.64	6.1
0.648	6.1
0.656	6.2
0.664	6.1
0.672	6.4
0.68	6.4
0.688	6.5
0.696	6.2
0.704	6.4
0.712	6.4
0.72	6.4
0.728	6.5
0.736	6.6
0.744	6.5
0.752	6.6
0.76	6.7
0.768	6.6
0.776	6.7
0.784	6.5
0.792	6.6
0.8	6.7
0.832	6.8
0.864	6.8
0.896	6.8
0.928	7
0.96	7.1
0.992	7
1.024	7
1.056	7
1.088	7
1.12	6.8
1.152	6.7
1.184	6.7
1.216	6.5
1.248	6.3
1.28	6.2
1.312	6.2
1.344	6.1
1.376	6
1.408	6
1.44	5.9
1.472	5.9
1.504	5.6
1.536	5.9
1.568	5.6
1.6	5.6
1.632	5.6
1.664	5.5
1.696	5.5
1.728	5.5
1.76	5.4
1.792	5.4
1.824	5.4
1.856	5.4
1.888	5.1
1.92	4.9
1.952	5
1.984	5.3
2.016	5.3
2.048	5.3
2.08	5.4
2.102	4.78
2.109	4.9
2.116	4.97
2.123	4.83
2.13	4.8
2.137	4.64
2.144	4.65
2.151	4.84
2.158	4.9
2.165	4.79
2.173	4.65
2.18	4.79
2.187	4.46
2.195	4.73
2.202	4.59
2.21	4.78
2.217	4.77
2.225	4.67
2.232	4.87
2.24	4.65
2.248	4.62
2.256	4.65
2.264	4.59
2.272	4.61
2.28	4.93
2.288	4.69
2.296	4.8
2.304	4.71
2.312	4.6
2.32	4.59
2.329	4.6
2.337	4.7
2.346	4.66
2.354	4.54
2.363	4.57
2.371	4.56
2.38	4.78
2.389	4.42
2.398	4.71
2.406	4.41
2.415	4.51
2.424	4.63
2.434	4.56
2.443	4.47
2.452	4.54
2.461	4.29
2.471	4.11
2.48	4.36
2.49	4.33
2.499	4.24
2.509	4.2
2.519	4.11
2.528	4.19
2.538	4.25
2.548	4.15
2.558	4.06
2.569	3.94
2.579	4.21
2.589	3.97
2.599	4
2.61	3.92
2.62	3.71
2.631	3.64
2.642	3.95
2.653	3.89
2.664	3.28
2.675	3.41
2.686	3.06
2.697	2.78
2.708	2.36
2.719	2.03
2.731	2.43
2.742	2.08
2.754	2.04
2.766	1.92
2.778	2.06
2.79	2
2.802	2.02
2.814	2.21
2.826	2.01
2.838	2.04
2.851	2.07
2.864	2.18
2.876	2.21
2.889	2.01
2.902	1.98
2.915	2.21
2.928	2.25
2.942	2.23
2.955	2.04
2.968	2.17
2.982	2.26
2.996	2.22
3.01	2.2
3.024	2.25
3.038	2.09
3.052	2.31
3.067	2.27
3.081	2.24
3.096	2.33
3.111	2.33
3.126	2.35
3.141	2.37
3.156	2.26
3.172	2.43
3.187	2.5
3.203	2.51
3.219	2.56
3.235	2.57
3.251	2.55
3.268	2.58
3.284	2.71
3.301	2.64
3.318	2.74
3.335	2.76
3.352	2.64
3.37	2.88
3.387	2.94
3.405	3
3.423	3.08
3.441	3.07
3.46	3.1
3.478	3.26
3.497	3.28
3.516	3.33
3.535	3.43
3.554	3.37
3.574	3.47
3.594	3.54
3.614	3.62
3.634	3.63
3.655	3.67
3.675	3.72
3.696	3.78
3.717	3.88
3.739	3.75
3.761	3.86
3.782	3.87
3.805	3.96
3.827	3.9
3.85	3.93
3.873	3.89
3.896	3.89
3.92	3.89
3.944	3.88
3.968	3.81
3.992	3.82
4.017	3.88
4.042	4.04
4.067	4.1
4.093	3.99
4.119	4.04
4.145	4.05
4.172	4.11
4.199	3.92
4.226	3.15
4.254	3.67
4.282	3.34
4.311	3.62
4.34	3.83
4.369	3.93
4.398	3.84
4.428	3.88
4.459	3.81
4.49	3.83
4.521	3.84
4.553	3.78
4.585	3.74
4.618	3.71
4.651	3.69
4.684	3.66
4.719	3.68
4.753	3.61
4.788	3.63
4.824	3.62
4.86	3.56
4.897	3.53
4.934	3.53
4.972	3.47
5.01	3.48
5.049	3.48
5.089	3.49
5.129	3.49
5.17	3.45
5.212	3.32
5.254	3.47
5.297	3.39
5.341	3.27
5.385	3.34
5.43	3.3
5.476	3.11
5.523	3.13
5.57	2.88
5.618	3.08
5.667	2.94
5.717	2.77
5.768	2.65
5.82	2.29
5.873	2.05
5.926	1.92
5.981	1.88
6.037	1.61
6.094	1.97
6.151	1.96
6.21	2.19
6.27	2.4
6.332	2.38
6.394	2.49
6.458	2.64
6.523	2.48
6.589	2.3
6.657	2.38
6.726	2.53
6.796	2.59
6.868	2.41
6.942	2.55
7.017	2.59
7.094	2.6
7.172	2.56
7.252	2.5
7.334	2.45
7.418	2.53
7.504	2.47
7.592	2.33
7.682	2.33
7.774	2.18
7.869	2.08
7.965	2
8.064	1.88
8.166	1.77
8.27	1.67
8.377	1.71
8.487	1.77
8.599	2.27
8.715	2.79
8.834	3.51
8.956	4.62
9.081	5.37
9.21	5.74
9.343	6.79
9.479	7.48
9.62	7.51
9.765	6.87
9.914	6.28
10.068	5.75
10.227	5.68
10.391	5.2
10.56	5.04
10.735	4.9
10.916	4.89
11.103	4.79
11.297	4.46
11.497	4.01
11.704	3.51
11.92	3.04
12.143	2.63
12.375	2.38
12.616	2.15
12.866	2.13
13.126	1.88
13.398	1.93
13.68	1.9
13.975	1.82
