Name: Colemanite Ca2B6O11 * 5H2O
Type: Mineral
Class: Borate
Subclass: None
Particle Size: Unsieved coarse powder
Sample No.: None
Owner: USGS
Origin: Boron, California
Description: Colemanite powder from Boron, California
Measurement: Directional Hemispherical Reflectance
X Units: Wavelength (micrometers)
Y Units: Reflectance (percent)
wavelength	value
0.4	22.81
0.414	23.7072
0.428	24.6231
0.442	25.5642
0.456	26.4265
0.47	27.1383
0.484	27.7216
0.498	28.3668
0.512	29.0725
0.526	29.7965
0.54	30.4109
0.554	30.862
0.568	31.2345
0.582	31.4736
0.596	31.6332
0.61	31.7323
0.624	31.8082
0.638	31.9084
0.652	31.9772
0.666	32.0221
0.68	32.0728
0.694	32.1147
0.708	32.1856
0.722	32.2684
0.736	32.3644
0.75	32.4161
0.764	32.7514
0.778	33.0918
0.792	33.3545
0.806	33.5357
0.82	33.6384
0.834	33.6875
0.848	33.6497
0.862	33.0146
0.876	33.1802
0.89	33.0975
0.904	32.915
0.918	32.7803
0.932	32.6233
0.946	32.4679
0.96	31.6015
0.974	29.0212
0.988	30.9175
1.002	31.8045
1.016	32.2932
1.03	32.2807
1.044	32.4189
1.058	32.4511
1.072	32.329
1.086	32.2154
1.1	32.1877
1.114	32.0734
1.128	32.0313
1.142	31.7687
1.156	31.3454
1.17	30.4481
1.184	29.6693
1.198	29.6819
1.212	29.6645
1.226	28.8906
1.24	29.0167
1.254	29.1592
1.268	28.9954
1.282	28.6
1.296	28.334
1.31	27.6245
1.324	26.223
1.338	24.8779
1.352	24.4924
1.366	23.4469
1.38	21.685
1.394	18.0778
1.408	12.4305
1.422	6.5479
1.436	9.5785
1.45	10.2755
1.464	10.9671
1.478	12.0214
1.492	12.0082
1.506	11.5965
1.52	11.1383
1.534	10.1652
1.548	9.3746
1.562	9.1047
1.576	9.209
1.59	9.2361
1.604	9.009
1.618	8.3424
1.632	7.707
1.646	7.3232
1.66	7.1443
1.674	7.0927
1.688	7.2868
1.702	7.374
1.716	7.6411
1.73	7.6804
1.744	7.7278
1.758	7.7047
1.772	7.6729
1.786	7.5601
1.8	7.5938
1.814	7.5919
1.828	7.8772
1.842	7.999
1.856	7.983
1.87	7.8907
1.884	7.442
1.898	7.2237
1.912	6.7233
1.926	6.2179
1.94	5.5291
1.954	4.9549
1.968	4.8902
1.982	4.9478
1.996	4.9349
2.01	4.9929
2.024	5.1298
2.038	5.2153
2.052	5.306
2.066	5.2498
2.08	5.1729
2.094	4.7293
2.108	4.349
2.122	4.5136
2.136	4.793
2.15	5.0072
2.164	4.8324
2.178	4.6366
2.192	4.5684
2.206	4.4809
2.22	4.5238
2.234	4.6691
2.248	4.9034
2.262	5.0974
2.276	5.2302
2.29	5.2388
2.304	5.2498
2.318	5.1867
2.332	5.0783
2.346	4.9654
2.36	4.7972
2.374	4.769
2.388	4.4834
2.402	4.3149
2.416	3.97
2.43	4.0836
2.444	4.0442
2.458	3.9042
2.472	3.8918
2.486	3.7023
2.5	3.6977
2.509	3.0797
2.517	3.3578
2.526	3.6153
2.535	3.3269
2.543	3.5947
2.552	3.1209
2.561	3.3269
2.57	3.4917
2.579	3.2239
2.588	3.2548
2.597	3.1209
2.606	3.1209
2.615	2.9149
2.624	3.1003
2.634	2.8325
2.643	2.8634
2.653	2.8428
2.662	2.6265
2.672	2.8222
2.681	2.575
2.691	2.6059
2.701	2.1939
2.711	2.06
2.721	1.7922
2.731	2.0806
2.741	1.8128
2.751	1.7407
2.761	1.5244
2.772	1.3699
2.782	1.8334
2.793	1.7716
2.803	1.7819
2.814	1.7201
2.825	1.6583
2.835	1.5656
2.846	1.6892
2.857	1.7716
2.868	1.6171
2.879	1.8128
2.891	1.442
2.902	1.4832
2.913	1.3802
2.925	1.4008
2.937	1.2051
2.948	1.4214
2.96	1.3287
2.972	1.2669
2.984	1.4111
2.996	1.2154
3.008	1.5038
3.02	1.4935
3.033	1.545
3.045	1.8025
3.058	1.7201
3.07	1.8025
3.083	1.9776
3.096	1.9879
3.109	2.06
3.122	1.9982
3.135	2.0703
3.149	2.1218
3.162	2.2042
3.176	2.1733
3.189	2.2351
3.203	2.2557
3.217	2.2248
3.231	2.3896
3.245	2.2866
3.259	2.2454
3.274	2.2454
3.288	2.2454
3.303	2.1321
3.318	2.2042
3.333	2.1939
3.348	2.1218
3.363	2.1321
3.378	2.163
3.394	2.163
3.409	2.1836
3.425	2.2248
3.441	2.266
3.457	2.2248
3.473	2.1218
3.49	2.1733
3.506	2.1012
3.523	2.266
3.54	2.266
3.557	2.3484
3.574	2.3072
3.591	2.2969
3.609	2.4926
3.626	2.5235
3.644	2.4514
3.662	2.369
3.68	2.3999
3.699	2.3896
3.717	2.3381
3.736	2.3999
3.755	2.3175
3.774	2.4514
3.794	2.3278
3.813	2.2866
3.833	2.1939
3.853	2.0909
3.873	2.1321
3.893	2.1218
3.914	2.0291
3.935	1.9776
3.956	2.0394
3.977	2.0188
3.998	2.0394
4.02	1.9982
4.042	2.0497
4.064	2.0806
4.086	2.1527
4.109	2.2763
4.132	2.1939
4.155	2.2763
4.179	2.2866
4.202	2.3175
4.226	2.2454
4.251	2.2351
4.275	2.2145
4.3	2.1527
4.325	2.2866
4.35	2.1939
4.376	2.1836
4.402	2.2351
4.428	2.2145
4.455	2.163
4.482	2.1012
4.509	2.0806
4.537	2.1012
4.565	2.0085
4.593	2.0188
4.622	1.9879
4.651	1.9055
4.68	1.9673
4.71	1.9364
4.74	1.9158
4.771	1.9776
4.802	1.9467
4.833	1.9261
4.865	1.9261
4.897	1.9673
4.929	1.854
4.962	1.9055
4.996	1.8334
5.03	1.7922
5.064	1.8128
5.099	1.7201
5.134	1.8025
5.17	1.7613
5.206	1.7098
5.243	1.6583
5.281	1.648
5.319	1.5656
5.357	1.5553
5.396	1.4935
5.436	1.4317
5.476	1.4008
5.517	1.3493
5.558	1.2669
5.6	1.2978
5.643	1.1948
5.686	1.1433
5.73	1.133
5.775	1.1124
5.82	1.0094
5.866	1.0506
5.913	1.0094
5.96	0.9579
6.009	0.9579
6.058	0.927
6.108	0.8755
6.159	0.8034
6.21	0.824
6.263	0.8652
6.316	0.8961
6.37	0.927
6.426	1.2257
6.482	1.3184
6.539	1.2978
6.597	1.3081
6.657	1.1433
6.717	1.0815
6.778	1.0197
6.841	1.0918
6.905	1.1433
6.97	1.5038
7.036	2.8016
7.103	4.5526
7.172	6.2418
7.242	8.1782
7.314	7.4778
7.387	5.1603
7.461	6.901
7.537	6.9113
7.614	5.0058
7.694	3.09
7.774	3.0694
7.857	3.5432
7.941	2.8737
8.027	2.163
8.115	2.5956
8.205	2.2248
8.297	1.7407
8.391	1.3287
8.487	1.442
8.585	2.1012
8.686	2.2248
8.789	2.2454
8.894	2.2042
9.002	2.0291
9.113	1.6377
9.226	2.0806
9.343	3.0488
9.462	5.4281
9.585	5.1603
9.71	4.532
9.839	4.0479
9.972	4.6659
10.108	5.9122
10.247	7.8177
10.391	12.0716
10.539	12.1231
10.691	10.8047
10.848	12.5454
11.009	10.815
11.175	9.167
11.346	8.1164
11.522	7.416
11.704	6.6126
11.892	5.4487
12.086	4.6453
12.287	5.0573
12.494	4.4393
12.708	4.017
12.93	3.5123
13.16	5.6547
13.398	3.914
13.644	5.0676
13.9	4.2333
