Name: Mirabilite Na2SO4ï¿½10H2O
Type: Mineral
Class: Sulfate
Particle Size: Coarse unsieved powder
Owner: USGS
Origin: Produced in lab
Description: Synthetic
Measurement: Directional Hemispherical Reflectance
X Units: Wavelength (micrometers)
Y Units: Reflectance (percent)
wavelength	value
14.051	2.5647
13.826	2.6574
13.609	2.6574
13.398	2.8119
13.193	2.5441
12.995	2.5956
12.802	2.5853
12.616	2.7604
12.434	2.9149
12.258	3.1724
12.086	3.2857
11.92	3.5329
11.757	3.6874
11.6	3.9037
11.446	4.017
11.297	4.1097
11.151	4.2745
11.009	4.4393
10.87	4.4393
10.735	4.4908
10.604	4.6762
10.475	4.5526
10.35	4.5526
10.227	4.2024
10.108	4.4084
9.991	4.4599
9.877	4.4187
9.765	4.5835
9.656	4.8307
9.549	4.9749
9.445	5.1397
9.343	5.4487
9.243	5.9122
9.145	6.4478
9.049	7.2924
8.956	9.0331
8.864	10.8047
8.774	10.8665
8.686	8.6932
8.599	7.3027
8.515	7.0658
8.431	7.0761
8.35	6.5817
8.27	4.5629
8.192	2.2248
8.115	1.0918
8.039	0.8961
7.965	0.7107
7.893	0.6386
7.821	0.618
7.751	0.7416
7.682	0.6489
7.614	0.7107
7.548	0.9064
7.483	0.8961
7.418	1.0712
7.355	1.1124
7.293	1.1742
7.232	1.4008
7.172	1.5244
7.113	1.5759
7.055	1.7922
6.998	1.9364
6.942	2.06
6.886	2.1733
6.832	2.1939
6.778	2.1836
6.726	2.3793
6.674	2.3381
6.623	2.3587
6.572	2.3999
6.523	2.6059
6.474	2.3896
6.426	2.4205
6.378	2.472
6.332	2.4926
6.286	2.5544
6.24	2.4308
6.195	2.4102
6.151	2.5853
6.108	2.4205
6.065	2.5029
6.023	2.7501
5.981	2.6368
5.94	2.6162
5.899	2.8737
5.859	2.9046
5.82	2.9767
5.781	3.399
5.743	3.6153
5.705	3.7389
5.667	4.0479
5.63	4.3981
5.594	4.6247
5.558	4.7895
5.523	5.0161
5.487	5.1397
5.453	5.3045
5.419	5.3251
5.385	5.665
5.352	5.6753
5.319	5.8092
5.286	5.8607
5.254	5.9225
5.222	5.9534
5.191	6.0255
5.16	6.0358
5.129	6.0976
5.099	6.0152
5.069	6.0976
5.04	6.0358
5.01	5.9946
4.981	5.9534
4.953	5.8092
4.925	5.7062
4.897	5.5414
4.869	5.3457
4.842	4.9646
4.815	4.5629
4.788	3.3578
4.762	2.6368
4.736	2.575
4.71	3.3166
4.684	3.4814
4.659	3.3887
4.634	3.502
4.61	3.6565
4.585	3.3372
4.561	3.5947
4.537	4.4496
4.513	3.9449
4.49	3.6874
4.467	3.8007
4.444	3.8728
4.421	4.0685
4.398	4.4084
4.376	4.429
4.354	4.4805
4.332	4.7483
4.311	5.2427
4.289	5.9019
4.268	6.0461
4.247	6.4272
4.226	6.7671
4.206	6.8289
4.185	6.9422
4.165	7.0143
4.145	7.4057
4.126	7.5087
4.106	7.828
4.086	8.1267
4.067	8.2606
4.048	8.5078
4.029	8.9095
4.011	9.0434
3.992	9.2391
3.974	9.6408
3.956	9.6717
3.938	10.1764
3.92	10.2176
3.902	10.4854
3.884	10.6296
3.867	10.7738
3.85	10.9695
3.833	10.8871
3.816	11.2579
3.799	11.3712
3.782	11.2888
3.766	11.3609
3.75	11.4433
3.733	11.3094
3.717	11.4021
3.702	11.2991
3.686	11.2888
3.67	11.1137
3.655	10.9489
3.639	11.0313
3.624	10.7944
3.609	10.6296
3.594	10.6708
3.579	10.4957
3.564	10.2073
3.549	10.0631
3.535	9.991
3.521	9.6511
3.506	9.5584
3.492	9.3318
3.478	9.1773
3.464	8.8992
3.45	8.5696
3.437	8.4769
3.423	8.3636
3.409	8.1164
3.396	7.8486
3.383	7.6838
3.37	7.4881
3.357	7.1688
3.344	7.1173
3.331	7.0143
3.318	6.8186
3.305	6.6023
3.293	6.5508
3.28	6.4787
3.268	6.4169
3.255	6.2933
3.243	6.1079
3.231	6.1079
3.219	5.9843
3.207	5.9534
3.195	5.768
3.183	5.6753
3.172	5.8916
3.16	5.6238
3.149	5.6547
3.137	5.768
3.126	5.7268
3.115	5.562
3.103	5.459
3.092	5.5208
3.081	5.356
3.07	5.5826
3.06	5.6238
3.049	5.6238
3.038	5.7474
3.027	5.459
3.017	5.5414
3.006	5.7474
2.996	5.7062
2.986	5.7371
2.975	5.9122
2.965	5.4899
2.955	5.6135
2.945	5.5517
2.935	5.7783
2.925	5.7886
2.915	5.4075
2.905	5.9328
2.896	6.077
2.886	5.7474
2.876	5.7062
2.867	5.9122
2.857	5.6856
2.848	5.6135
2.838	5.5929
2.829	5.7062
2.82	5.5002
2.811	5.8092
2.802	5.7062
2.793	5.7062
2.784	5.8504
2.775	6.1182
2.766	6.1388
2.757	6.1594
2.748	6.6641
2.74	6.5611
2.731	7.5293
2.722	7.7662
2.714	8.5696
2.705	9.3112
2.697	9.7335
2.688	9.9807
2.68	10.1867
2.672	10.5163
2.664	10.8974
2.655	11.8347
2.647	12.1334
2.639	12.2982
2.631	12.4527
2.623	13.3488
2.615	13.5445
2.607	13.5239
2.599	14.3273
2.592	14.2346
2.584	13.4621
2.576	13.7814
2.569	13.6166
2.561	13.7196
2.553	13.9668
2.546	14.008
2.538	13.6887
2.531	13.4209
2.524	13.8947
2.516	13.3076
2.509	13.493
2.502	13.1634
2.48	13.1457
2.456	13.9694
2.432	15.2024
2.408	16.7197
2.384	18.3691
2.36	20.2239
2.336	22.449
2.312	23.6349
2.288	24.043
2.264	23.1478
2.24	22.1033
2.216	21.5887
2.192	21.3995
2.168	21.4418
2.144	21.5395
2.12	20.7747
2.096	19.6864
2.072	18.7546
2.048	17.5318
2.024	16.193
2	14.9398
1.976	13.7911
1.952	13.3135
1.928	14.0107
1.904	18.3437
1.88	26.4394
1.856	35.4812
1.832	38.3387
1.808	37.1759
1.784	35.671
1.76	35.9526
1.736	41.2853
1.712	45.589
1.688	47.443
1.664	46.9959
1.64	44.5722
1.616	41.5263
1.592	38.4531
1.568	35.7646
1.544	33.6417
1.52	31.3818
1.496	28.6953
1.472	26.3753
1.448	26.1119
1.424	31.3862
1.4	44.7664
1.376	54.2661
1.352	56.313
1.328	61.0709
1.304	65.9171
1.28	66.3278
1.256	63.4082
1.232	61.1847
1.208	60.483
1.184	62.4246
1.16	68.5407
1.136	77.4138
1.112	79.742
1.088	81.044
1.064	81.6422
1.04	80.1898
1.016	76.5614
0.992	75.1875
0.968	78.8106
0.944	82.0536
0.92	83.1784
0.896	83.6418
0.872	83.9069
0.848	85.0176
0.824	85.7774
0.8	85.6338
0.776	85.464
0.752	85.9263
0.728	86.2577
0.704	86.3229
0.68	86.372
0.656	86.3168
0.632	86.3178
0.608	86.2534
0.584	86.1882
0.56	85.7561
0.536	85.1479
0.512	84.7203
0.488	84.3377
0.464	83.9047
0.44	83.4847
0.416	82.9264
