Name: Eugsterite Na4Ca(SO4)3 * 2H2O
Type: Mineral
Class: Sulfate
Particle Size: Unsieved coarse powder
Sample No.: None
Owner: USGS
Origin: Evaporation of Na2SO4 + CaSO4 solution at 70 deg. C
Description: Eugsterite, sample contained a small amount of gypsum
Measurement: Directional Hemispherical Reflectance
X Units: Wavelength (micrometers)
Y Units: Reflectance (percent)
wavelength	value
0.4	53.3567
0.414	54.1681
0.428	55.0181
0.442	55.9516
0.456	56.7864
0.47	57.2216
0.484	57.6043
0.498	58.1933
0.512	58.6059
0.526	59.0065
0.54	59.3504
0.554	59.6114
0.568	59.8281
0.582	59.9716
0.596	60.1033
0.61	60.1374
0.624	60.1654
0.638	60.2278
0.652	60.2927
0.666	60.335
0.68	60.3468
0.694	60.3992
0.708	60.5021
0.722	60.6195
0.736	60.6799
0.75	60.7009
0.764	60.7538
0.778	60.7188
0.792	60.7406
0.806	60.7138
0.82	60.6988
0.834	60.6395
0.848	60.7038
0.862	61.6085
0.876	61.1888
0.89	61.2809
0.904	61.2677
0.918	61.3941
0.932	61.6904
0.946	61.7112
0.96	61.762
0.974	61.7934
0.988	61.874
1.002	62.0346
1.016	61.9861
1.03	62.1179
1.044	62.144
1.058	62.2407
1.072	62.313
1.086	62.2413
1.1	62.2974
1.114	62.3229
1.128	62.3155
1.142	62.4642
1.156	62.419
1.17	62.2802
1.184	62.4234
1.198	62.2376
1.212	62.5445
1.226	62.4088
1.24	62.3459
1.254	62.3643
1.268	62.6726
1.282	62.8271
1.296	62.5642
1.31	62.7694
1.324	62.6553
1.338	62.4421
1.352	62.4335
1.366	62.4351
1.38	62.3399
1.394	61.9086
1.408	61.0454
1.422	59.7463
1.436	58.7158
1.45	58.6987
1.464	59.2159
1.478	59.4245
1.492	59.6032
1.506	60.1133
1.52	60.3609
1.534	60.5317
1.548	60.7065
1.562	60.9224
1.576	60.7828
1.59	61.0352
1.604	61.1658
1.618	61.1994
1.632	61.3277
1.646	61.3856
1.66	61.6736
1.674	61.7381
1.688	61.8066
1.702	61.7422
1.716	61.9028
1.73	61.9405
1.744	61.5631
1.758	61.2016
1.772	61.114
1.786	61.1121
1.8	61.0958
1.814	61.344
1.828	61.4183
1.842	61.4886
1.856	61.3377
1.87	60.824
1.884	59.1052
1.898	55.7893
1.912	49.7389
1.926	43.9247
1.94	42.604
1.954	43.3609
1.968	43.9367
1.982	45.2284
1.996	46.9125
2.01	49.4952
2.024	51.617
2.038	53.095
2.052	53.851
2.066	54.382
2.08	54.6717
2.094	55.257
2.108	55.9787
2.122	56.8671
2.136	57.665
2.15	58.2242
2.164	58.3144
2.178	58.0654
2.192	57.916
2.206	57.8534
2.22	57.9729
2.234	58.2935
2.248	58.5776
2.262	58.9237
2.276	58.9841
2.29	59.0001
2.304	58.945
2.318	58.6618
2.332	58.0089
2.346	57.3231
2.36	56.093
2.374	54.8376
2.388	53.4023
2.402	51.6612
2.416	49.4864
2.43	47.2958
2.444	45.5636
2.458	44.1486
2.472	43.2254
2.486	42.4262
2.5	42.4463
2.509	42.9201
2.517	43.4763
2.526	44.2385
2.535	44.9389
2.543	45.6084
2.552	46.1955
2.561	47.0401
2.57	47.2667
2.579	47.586
2.588	47.9671
2.597	47.6375
2.606	47.3491
2.615	46.5869
2.624	45.4333
2.634	44.8256
2.643	43.4145
2.653	42.2403
2.662	40.6953
2.672	39.2739
2.681	37.1315
2.691	34.5668
2.701	31.4665
2.711	28.4692
2.721	25.0084
2.731	21.1974
2.741	17.6336
2.751	14.3582
2.761	11.8759
2.772	10.1867
2.782	8.8477
2.793	8.3945
2.803	7.9928
2.814	7.7044
2.825	7.1585
2.835	6.9216
2.846	6.4787
2.857	6.077
2.868	5.7371
2.879	5.4693
2.891	4.9852
2.902	4.9337
2.913	4.6968
2.925	4.429
2.937	4.2642
2.948	4.3466
2.96	4.326
2.972	4.4084
2.984	4.4805
2.996	4.429
3.008	4.4908
3.02	4.6556
3.033	4.5526
3.045	4.7586
3.058	4.8925
3.07	5.0779
3.083	5.3354
3.096	5.6238
3.109	5.9637
3.122	6.4169
3.135	6.8495
3.149	7.3748
3.162	7.9207
3.176	8.4975
3.189	9.1052
3.203	9.8159
3.217	10.4751
3.231	11.1034
3.245	11.8141
3.259	12.8544
3.274	13.8432
3.288	14.7805
3.303	15.6869
3.318	16.7478
3.333	17.51
3.348	18.54
3.363	19.3949
3.378	20.0541
3.394	21.2489
3.409	21.4858
3.425	22.2171
3.441	24.3183
3.457	25.7191
3.473	26.5328
3.49	27.3156
3.506	27.4392
3.523	29.973
3.54	31.3017
3.557	32.7025
3.574	33.8458
3.591	34.9582
3.609	35.8028
3.626	36.4929
3.644	37.08
3.662	37.6671
3.68	38.2542
3.699	38.8928
3.717	39.4902
3.736	39.6138
3.755	39.2945
3.774	38.8516
3.794	38.9855
3.813	39.5623
3.833	39.6756
3.853	39.6241
3.873	40.4893
3.893	40.4996
3.914	40.5305
3.935	40.1803
3.956	39.6756
3.977	39.2842
3.998	38.8001
4.02	38.1203
4.042	37.1315
4.064	35.7719
4.086	34.6389
4.109	33.5059
4.132	31.8579
4.155	30.0142
4.179	27.9851
4.202	26.162
4.226	24.9981
4.251	20.3116
4.275	16.5933
4.3	12.8338
4.325	10.1146
4.35	7.6838
4.376	8.3945
4.402	7.7971
4.428	6.8701
4.455	6.6332
4.482	6.6847
4.509	7.7559
4.537	11.8038
4.565	6.2418
4.593	5.9946
4.622	7.519
4.651	6.2418
4.68	6.0255
4.71	4.6041
4.74	3.0282
4.771	2.8943
4.802	8.1267
4.833	15.0792
4.865	20.0232
4.897	23.8239
4.929	26.5431
4.962	28.737
4.996	30.4365
5.03	31.9403
5.064	33.0527
5.099	34.0312
5.134	34.9376
5.17	35.7719
5.206	36.0809
5.243	36.0706
5.281	35.8749
5.319	35.5144
5.357	34.8449
5.396	33.5265
5.436	31.1472
5.476	27.8512
5.517	27.0581
5.558	26.2753
5.6	25.0496
5.643	22.6085
5.686	19.8172
5.73	17.9735
5.775	16.5418
5.82	15.0998
5.866	11.9892
5.913	8.3533
5.96	7.0452
6.009	7.7147
6.058	6.6641
6.108	5.0779
6.159	4.429
6.21	3.9552
6.263	5.2633
6.316	5.9328
6.37	6.7568
6.426	7.2718
6.482	9.5996
6.539	8.9919
6.597	7.5396
6.657	6.4684
6.717	5.15
6.778	4.1818
6.841	5.5208
6.905	5.4487
6.97	3.9449
7.036	3.7801
7.103	2.575
7.172	3.0591
7.242	3.2033
7.314	2.5853
7.387	1.7922
7.461	1.6686
7.537	1.4317
7.614	1.1021
7.694	0.8446
7.774	0.6489
7.857	0.5768
7.941	0.618
8.027	0.8652
8.115	1.6068
8.205	3.4093
8.297	9.373
8.391	12.3806
8.487	13.9565
8.585	13.0398
8.686	13.4518
8.789	14.1625
8.894	12.7205
9.002	8.6623
9.113	5.5311
9.226	4.532
9.343	4.2539
9.462	4.3157
9.585	4.7998
9.71	5.0779
9.839	5.0676
9.972	4.7071
10.108	4.7174
10.247	5.8092
10.391	6.9525
10.539	7.8177
10.691	8.4769
10.848	8.9919
11.009	9.3524
11.175	9.2288
11.346	8.2194
11.522	8.8271
11.704	8.9919
11.892	8.3739
12.086	7.4675
12.287	6.5199
12.494	5.4899
12.708	4.7689
12.93	4.3878
13.16	4.326
13.398	4.0788
13.644	3.8213
13.9	3.3063
