Name: Trona Na3(CO)(HCO3) * 2H2O
Type: Mineral
Class: Carbonate
Subclass: None
Particle Size: Unsieved coarse powder
Sample No.: None
Owner: USGS
Origin: Green River Formation, Wyoming
Description: Trona, from the Green River Formation, Wyoming
Measurement: Directional Hemispherical Reflectance
X Units: Wavelength (micrometers)
Y Units: Reflectance (percent)
wavelength	value
14.051	1.3081
13.79	1.339
13.538	1.6068
13.295	1.7098
13.06	1.9055
12.834	2.0085
12.616	2.163
12.404	2.1424
12.2	2.2145
12.002	2.4205
11.811	3.6256
11.626	4.9337
11.446	2.4308
11.272	2.0394
11.103	2.0497
10.939	2.0497
10.78	2.1424
10.625	2.0291
10.475	2.0909
10.329	2.1218
10.187	2.1939
10.049	2.1424
9.914	2.266
9.783	2.2248
9.656	2.1321
9.532	1.648
9.411	2.2763
9.293	2.2248
9.178	2.2969
9.065	2.1836
8.956	2.2557
8.849	2.1733
8.744	2.2145
8.642	2.1115
8.543	2.1836
8.445	2.3072
8.35	2.3896
8.257	2.2557
8.166	2.1836
8.077	2.06
7.99	1.9879
7.905	1.8437
7.821	1.6892
7.739	1.6068
7.659	1.5759
7.581	1.5244
7.504	1.4523
7.429	1.4626
7.355	1.4523
7.283	1.4008
7.212	1.3493
7.143	1.2772
7.074	1.3081
7.007	1.3287
6.942	1.5038
6.877	1.6686
6.814	2.06
6.752	2.266
6.691	1.9467
6.631	1.4111
6.572	1.0403
6.514	0.8652
6.458	0.8137
6.402	0.7725
6.347	0.7622
6.293	0.7828
6.24	0.8652
6.188	0.8961
6.137	0.927
6.086	1.0197
6.037	1.0609
5.988	1.1021
5.94	1.2257
5.893	1.2978
5.846	1.2978
5.8	1.236
5.755	1.1433
5.711	1.0403
5.667	0.9888
5.624	0.8755
5.582	0.9373
5.54	0.8858
5.499	0.8446
5.459	0.927
5.419	0.8961
5.379	0.9167
5.341	0.9476
5.302	0.9373
5.265	0.9888
5.227	0.9888
5.191	1.0094
5.155	1.0403
5.119	1.0815
5.084	1.1227
5.049	1.1021
5.015	1.1433
4.981	1.1948
4.948	1.1845
4.915	1.2154
4.883	1.2463
4.851	1.2875
4.819	1.3081
4.788	1.339
4.758	1.3493
4.727	1.3493
4.697	1.4317
4.668	1.4935
4.638	1.4729
4.61	1.4832
4.581	1.5141
4.553	1.5141
4.525	1.4935
4.498	1.4523
4.47	1.4832
4.444	1.4111
4.417	1.4832
4.391	1.4214
4.365	1.4317
4.34	1.4729
4.314	1.5038
4.289	1.5347
4.265	1.5862
4.24	1.5553
4.216	1.6377
4.192	1.5656
4.169	1.6377
4.145	1.6068
4.122	1.6583
4.099	1.6171
4.077	1.6583
4.055	1.7098
4.032	1.6583
4.011	1.751
3.989	1.6583
3.968	1.6892
3.947	1.7716
3.926	1.7098
3.905	1.7098
3.884	1.751
3.864	1.8437
3.844	1.8952
3.824	1.8334
3.805	1.8643
3.785	1.854
3.766	1.8746
3.747	1.8334
3.728	1.8334
3.709	1.8746
3.691	1.854
3.673	1.8746
3.655	1.751
3.637	1.7819
3.619	1.7407
3.601	1.648
3.584	1.5862
3.567	1.5965
3.549	1.5862
3.533	1.5862
3.516	1.5038
3.499	1.4523
3.483	1.3905
3.466	1.3802
3.45	1.3802
3.434	1.4214
3.418	1.3184
3.403	1.3184
3.387	1.3905
3.372	1.3081
3.357	1.3184
3.341	1.2669
3.326	1.2257
3.312	1.2154
3.297	1.2257
3.282	1.1433
3.268	1.0712
3.253	1.1124
3.239	1.0918
3.225	1.0609
3.211	1.0403
3.197	1.0506
3.183	1.0094
3.17	1.1124
3.156	1.1639
3.143	1.1124
3.13	1.1021
3.117	1.0918
3.103	1.0506
3.091	1.0918
3.078	1.0403
3.065	1.0197
3.052	1.0712
3.04	1.0609
3.027	1.0506
3.015	1.1948
3.003	0.9991
2.991	1.1433
2.979	1.1948
2.967	1.2772
2.955	1.1948
2.943	1.1742
2.932	1.2978
2.92	1.2154
2.909	1.2463
2.897	1.4729
2.886	1.6171
2.875	1.3802
2.864	1.4008
2.853	1.4111
2.842	1.3802
2.831	1.3184
2.82	1.3802
2.809	1.4008
2.799	1.5553
2.788	1.8025
2.778	2.0497
2.767	2.2763
2.757	2.6059
2.747	3.1518
2.737	3.5844
2.727	4.1921
2.717	5.15
2.707	5.6032
2.697	6.3757
2.687	6.8907
2.677	7.3748
2.668	7.725
2.658	7.9825
2.649	8.4254
2.639	8.5387
2.63	9.0949
2.62	9.4451
2.611	9.3318
2.602	9.8468
2.593	10.1352
2.584	10.4545
2.575	10.5884
2.566	10.5266
2.557	11.0931
2.548	11.1034
2.54	11.4021
2.531	11.4742
2.522	11.5669
2.514	11.742
2.505	11.9686
2.496	12.4216
2.482	11.633
2.468	12.229
2.454	13.2568
2.44	13.0072
2.426	13.9865
2.412	14.5256
2.398	15.1032
2.384	15.699
2.37	16.5607
2.356	17.4219
2.342	17.7706
2.328	18.1565
2.314	18.5475
2.3	18.8389
2.286	18.8562
2.272	18.7452
2.258	17.8954
2.244	17.2458
2.23	17.4554
2.216	17.0749
2.202	16.3899
2.188	15.684
2.174	15.3442
2.16	16.0563
2.146	16.4383
2.132	16.0442
2.118	16.0895
2.104	16.7124
2.09	17.2529
2.076	17.2451
2.062	17.4437
2.048	16.8576
2.034	17.1656
2.02	17.0253
2.006	16.4034
1.992	15.4837
1.978	14.3606
1.964	13.489
1.95	13.5452
1.936	15.6688
1.922	18.3995
1.908	21.1306
1.894	24.0732
1.88	26.6683
1.866	28.8447
1.852	29.9812
1.838	30.5154
1.824	30.9229
1.81	30.9801
1.796	30.3044
1.782	30.0457
1.768	30.2236
1.754	30.4556
1.74	30.425
1.726	30.7816
1.712	31.0795
1.698	31.3564
1.684	31.4958
1.67	31.6364
1.656	32.1569
1.642	32.9316
1.628	33.2463
1.614	33.4906
1.6	33.9662
1.586	34.3557
1.572	34.6145
1.558	34.4341
1.544	33.458
1.53	33.1172
1.516	32.1933
1.502	31.3542
1.488	30.2087
1.474	29.0386
1.46	29.8236
1.446	30.4728
1.432	29.6148
1.418	38.2053
1.404	49.9349
1.39	60.1088
1.376	65.6503
1.362	67.7091
1.348	70.2675
1.334	74.7177
1.32	80.1767
1.306	84.3355
1.292	86.6546
1.278	86.4547
1.264	85.9003
1.25	85.4534
1.236	85.3912
1.222	86.5895
1.208	87.7364
1.194	89.2804
1.18	94.0812
1.166	100.472
1.152	105.195
1.138	107.816
1.124	108.549
1.11	109.556
1.096	110.098
1.082	110.323
1.068	110.532
1.054	109.587
1.04	108.353
1.026	106.198
1.012	104.548
0.998	103.044
0.984	99.6432
0.97	104.207
0.956	109.59
0.942	111.843
0.928	112.641
0.914	113.48
0.9	113.795
0.886	114.416
0.872	114.101
0.858	113.813
0.844	113.748
0.83	114.082
0.816	114.022
0.802	114.032
0.788	113.959
0.774	113.982
0.76	113.83
0.746	114.008
0.732	114.538
0.718	114.808
0.704	115.002
0.69	115.102
0.676	115.211
0.662	115.341
0.648	115.396
0.634	115.449
0.62	115.525
0.606	115.677
0.592	115.752
0.578	115.774
0.564	115.841
0.55	115.861
0.536	115.816
0.522	115.771
0.508	115.996
0.494	115.992
0.48	115.61
0.466	115.627
0.452	115.768
0.438	115.537
0.424	115.531
0.41	115.496
