Name: Altered volcanic tuff
Type: Rock
Class: Igneous
Subclass: Felsic
Particle Size: Whole rock chips
Sample No.: cup3
Owner: USGS
Origin: Cuprite, Nevada
Description: Altered volcanic tuff, white
Measurement: Directional Hemispherical Reflectance
X Units: Wavelength (micrometers)
Y Units: Reflectance (percent)
wavelength	value
0.4	31.6194
0.424	34.1647
0.448	37.0063
0.472	38.9306
0.496	40.5381
0.52	42.7758
0.544	45.2825
0.568	48.1551
0.592	50.4394
0.616	51.633
0.64	52.357
0.664	52.9467
0.688	53.5198
0.712	54.0688
0.736	54.3694
0.76	54.5954
0.784	54.8605
0.808	54.9749
0.832	55.0249
0.856	54.5367
0.88	54.2529
0.904	54.2012
0.928	54.2
0.952	54.5361
0.976	54.6658
1	54.7324
1.024	54.7692
1.048	54.8201
1.072	54.8645
1.096	54.8712
1.12	54.8374
1.144	54.5846
1.168	54.4752
1.192	54.4281
1.216	54.5113
1.24	54.5059
1.264	54.4936
1.288	54.4453
1.312	54.2535
1.336	53.8918
1.36	53.2898
1.384	51.1574
1.408	47.9246
1.432	47.7591
1.456	47.6915
1.48	48.345
1.504	49.1686
1.528	49.8761
1.552	50.5536
1.576	51.0522
1.6	51.2697
1.624	51.2885
1.648	51.2548
1.672	51.1276
1.696	50.8897
1.72	50.5253
1.744	49.9953
1.768	49.461
1.792	49.1089
1.816	48.9563
1.84	48.8157
1.864	47.5185
1.888	41.2664
1.912	35.4854
1.936	35.6925
1.96	36.5747
1.984	38.1597
2.008	39.5171
2.032	41.0099
2.056	41.8817
2.08	42.3775
2.104	42.8208
2.128	43.532
2.152	43.3611
2.176	42.3764
2.2	40.9702
2.224	40.3028
2.248	40.2771
2.272	39.7596
2.296	39.4281
2.32	39.2348
2.344	39.0158
2.368	38.1954
2.392	36.3746
2.416	35.2322
2.44	33.4843
2.464	31.7339
2.488	29.9665
2.504	29.4683
2.511	29.4374
2.519	29.1696
2.526	28.3971
2.533	28.6855
2.541	28.5413
2.548	28.3559
2.556	27.9954
2.563	28.1808
2.571	27.9027
2.579	27.604
2.586	27.5113
2.594	27.398
2.602	26.5946
2.61	26.2341
2.618	26.0487
2.626	25.5852
2.634	24.8127
2.642	23.9372
2.65	22.9793
2.658	21.7639
2.666	20.5279
2.675	17.7778
2.683	15.862
2.691	12.5351
2.7	9.1773
2.708	6.2418
2.717	5.7783
2.725	5.6547
2.734	5.2633
2.742	4.944
2.751	4.6041
2.76	4.5114
2.769	4.3569
2.778	4.3569
2.787	4.2745
2.796	4.1612
2.805	4.0788
2.814	3.9655
2.823	4.0479
2.832	3.605
2.842	3.5226
2.851	3.7389
2.86	3.6771
2.87	3.2651
2.879	3.5844
2.889	3.2033
2.899	3.6256
2.909	3.3578
2.918	3.3475
2.928	3.296
2.938	3.4402
2.948	3.2239
2.958	3.5329
2.968	3.5844
2.979	3.5947
2.989	3.5741
2.999	3.6771
3.01	3.502
3.02	3.605
3.031	3.605
3.042	3.5741
3.052	3.6668
3.063	3.7595
3.074	3.605
3.085	3.708
3.096	3.9346
3.107	3.8522
3.118	3.8934
3.13	3.9964
3.141	4.0891
3.152	4.0376
3.164	4.1921
3.176	4.2127
3.187	4.4702
3.199	4.5526
3.211	4.6762
3.223	4.6247
3.235	4.6247
3.247	4.7792
3.259	4.7792
3.272	4.9028
3.284	4.9337
3.297	5.2015
3.309	5.0573
3.322	5.3869
3.335	5.5723
3.348	5.3663
3.361	5.5208
3.374	5.6753
3.387	5.6238
3.401	5.9534
3.414	5.7989
3.428	5.8092
3.441	6.2315
3.455	6.4787
3.469	6.4993
3.483	6.8289
3.497	6.8598
3.511	7.0349
3.525	7.3027
3.54	7.6014
3.554	7.725
3.569	7.9619
3.584	8.1267
3.599	8.3327
3.614	8.446
3.629	8.7653
3.644	8.961
3.66	9.1155
3.675	9.2185
3.691	9.3215
3.707	9.3524
3.723	9.6099
3.739	9.7541
3.755	9.7644
3.771	9.9189
3.788	10.0116
3.805	10.0219
3.822	10.1661
3.838	10.0219
3.856	9.888
3.873	10.0734
3.89	9.9601
3.908	9.9498
3.926	9.9292
3.944	9.9395
3.962	9.7644
3.98	9.5584
3.998	9.7129
4.017	9.9395
4.036	9.9807
4.055	10.0013
4.074	9.7541
4.093	9.7644
4.112	9.5687
4.132	9.5275
4.152	9.3421
4.172	9.4451
4.192	9.1773
4.213	9.1773
4.233	9.1567
4.254	8.7756
4.275	8.6108
4.296	8.3842
4.318	7.9825
4.34	7.7559
4.361	7.622
4.384	7.2924
4.406	7.1688
4.428	7.2821
4.451	7.3439
4.474	7.2615
4.498	7.4263
4.521	7.4881
4.545	7.4778
4.569	7.3851
4.593	7.2718
4.618	7.0761
4.643	6.8907
4.668	6.7465
4.693	6.7362
4.719	6.6332
4.744	6.5199
4.771	6.3139
4.797	6.0461
4.824	5.5929
4.851	4.9955
4.878	4.3569
4.906	3.8316
4.934	3.502
4.962	3.2651
4.991	3.2857
5.02	3.2651
5.049	3.2445
5.079	3.3784
5.109	3.4299
5.139	3.3887
5.17	3.3372
5.201	3.09
5.233	2.8016
5.265	2.6059
5.297	2.5235
5.33	2.4308
5.363	2.5338
5.396	2.7192
5.43	2.9149
5.464	2.8531
5.499	2.8634
5.534	2.7604
5.57	2.6677
5.606	2.6471
5.643	2.5544
5.68	2.5132
5.717	2.4308
5.755	2.369
5.794	2.4205
5.833	2.3587
5.873	2.4205
5.913	2.1012
5.954	1.9158
5.995	1.7819
6.037	1.648
6.079	1.6068
6.122	1.6892
6.166	1.6171
6.21	1.6892
6.255	1.8025
6.301	1.8025
6.347	2.0291
6.394	2.0085
6.442	1.9673
6.49	1.8437
6.539	1.6686
6.589	1.5862
6.64	1.5141
6.691	1.4523
6.743	1.3081
6.796	1.1639
6.85	1.1227
6.905	1.1021
6.96	0.9785
7.017	1.03
7.074	0.9888
7.133	0.9579
7.192	0.9888
7.252	0.8858
7.314	0.824
7.376	0.8755
7.44	0.824
7.504	1.0094
7.57	1.1021
7.637	1.6068
7.705	2.0806
7.774	3.3063
7.845	5.1294
7.917	7.7868
7.99	9.7129
8.064	11.4639
8.14	13.8226
8.218	15.5942
8.297	16.2019
8.377	15.4706
8.459	18.3134
8.543	20.0232
8.628	20.5279
8.715	22.8557
8.804	25.4925
8.894	28.2941
8.987	30.3747
9.081	30.4468
9.178	28.5001
9.276	24.6582
9.377	20.4352
9.479	17.2628
9.585	15.7075
9.692	14.3685
9.802	13.1016
9.914	11.8965
10.029	10.5266
10.147	9.3318
10.268	8.3018
10.391	7.4469
10.518	6.8186
10.647	6.4478
10.78	6.1182
10.916	5.9122
11.056	5.5826
11.199	5.3766
11.346	4.944
11.497	4.7071
11.652	4.2951
11.811	3.8831
11.975	3.4196
12.143	3.0076
12.316	2.4514
12.494	4.3363
12.677	5.2839
12.866	5.356
13.06	4.5526
13.261	4.1921
13.467	3.8625
13.68	3.605
13.9	3.4299
