Name: Limestone CaCO3
Type: Rock
Class: Sedimentary
Subclass: Limestone
Particle Size: Whole rock chips
Sample No.: ro337
Owner: Larry Rowan, USGS
Origin: Ronda, Spain
Description: Gray limestone
Measurement: Reflectance
X Units: Wavelength (micrometers)
Y Units: Reflectance (percent)
wavelength	value
0.4	25.2
0.408	25
0.416	24.9
0.424	25
0.432	25.2
0.44	25.2
0.448	25.3
0.456	25.5
0.464	25.4
0.472	25.5
0.48	25.6
0.488	26
0.496	26.4
0.504	26.7
0.512	27.1
0.52	27.4
0.528	27.6
0.536	28.2
0.544	28.4
0.552	28.7
0.56	29.4
0.568	29.5
0.576	30.2
0.584	30.3
0.592	30.5
0.6	31
0.608	31.1
0.616	31.1
0.624	31.9
0.632	32
0.64	32.4
0.648	32.7
0.656	32.8
0.664	33.2
0.672	33.3
0.68	33.8
0.688	34.1
0.696	34.6
0.704	34.8
0.712	35.2
0.72	35.8
0.728	36.1
0.736	36.4
0.744	36.5
0.752	37.2
0.76	37.7
0.768	37.5
0.776	38
0.784	38.5
0.792	38.8
0.8	39.6
0.832	40.5
0.864	41.6
0.896	42.5
0.928	43.3
0.96	44
0.992	44.7
1.024	45.5
1.056	46.6
1.088	47.5
1.12	48
1.152	48.8
1.184	49.8
1.216	50.2
1.248	51.2
1.28	51.8
1.312	52.1
1.344	52.6
1.376	52.5
1.408	51.8
1.44	52
1.472	53.2
1.504	54
1.536	54.5
1.568	55.2
1.6	55.7
1.632	55.4
1.664	55.8
1.696	56.2
1.728	55.7
1.76	55.9
1.792	56.7
1.824	55.3
1.856	53.2
1.888	51.2
1.92	49
1.952	48.6
1.984	48.7
2.016	52.9
2.048	54.5
2.08	55.1
2.102	54.01
2.109	54.03
2.116	53.34
2.123	53.38
2.13	52.72
2.137	53.21
2.144	51.77
2.151	50.24
2.158	50.59
2.165	51.11
2.173	51.59
2.18	52.55
2.187	52.22
2.195	52.46
2.202	52.17
2.21	51.45
2.217	50.99
2.225	50.3
2.232	49.06
2.24	47.86
2.248	46.45
2.256	44.33
2.264	42.44
2.272	39.98
2.28	36.92
2.288	34.34
2.296	33.16
2.304	32.05
2.312	30.95
2.32	29.67
2.329	27.21
2.337	25.41
2.346	26.17
2.354	29.91
2.363	36.25
2.371	41.26
2.38	44
2.389	45.13
2.398	44.43
2.406	44.12
2.415	43.7
2.424	41.49
2.434	38.99
2.443	37.05
2.452	34.22
2.461	31.25
2.471	27.48
2.48	24.61
2.49	22.61
2.499	22.5
2.509	21.64
2.519	19.85
2.528	17.23
2.538	16.74
2.548	20.29
2.558	27.05
2.569	32.65
2.579	35.17
2.589	37.9
2.599	39.98
2.61	40.95
2.62	41.17
2.631	40.98
2.642	40.39
2.653	39.32
2.664	38.09
2.675	35.82
2.686	33.45
2.697	28.5
2.708	23.7
2.719	18.56
2.731	15.45
2.742	12.92
2.754	11.44
2.766	10.39
2.778	9.59
2.79	8.6
2.802	8.84
2.814	8.66
2.826	8.24
2.838	7.87
2.851	7.65
2.864	7.3
2.876	7.06
2.889	6.94
2.902	6.88
2.915	6.77
2.928	6.54
2.942	6.75
2.955	6.49
2.968	6.67
2.982	6.84
2.996	6.73
3.01	6.66
3.024	6.68
3.038	6.71
3.052	6.75
3.067	6.85
3.081	6.85
3.096	6.81
3.111	6.83
3.126	7.1
3.141	7.15
3.156	7.32
3.172	7.69
3.187	7.95
3.203	8.12
3.219	8.25
3.235	8.18
3.251	8.1
3.268	7.94
3.284	7.74
3.301	7.31
3.318	6.64
3.335	5.5
3.352	4.57
3.37	4.71
3.387	4.72
3.405	4.59
3.423	4.6
3.441	4.75
3.46	4.45
3.478	4.35
3.497	4.52
3.516	4.87
3.535	6.16
3.554	7.27
3.574	7.53
3.594	9.21
3.614	10.17
3.634	10.73
3.655	11.03
3.675	11.14
3.696	11.05
3.717	10.48
3.739	9.72
3.761	8.77
3.782	7.36
3.805	5.32
3.827	4.57
3.85	4.5
3.873	4.46
3.896	4.36
3.92	4.28
3.944	4.1
3.968	3.63
3.992	3.91
4.017	4.53
4.042	5.15
4.067	5.91
4.093	6.53
4.119	7.19
4.145	7.87
4.172	8.37
4.199	8.61
4.226	8.59
4.254	7.75
4.282	7.42
4.311	8.06
4.34	8.2
4.369	8.57
4.398	8.26
4.428	7.64
4.459	6.84
4.49	6.22
4.521	5.91
4.553	5.81
4.585	5.56
4.618	5.15
4.651	4.53
4.684	4.46
4.719	5.09
4.753	5.67
4.788	5.75
4.824	5.66
4.86	5.56
4.897	5.47
4.934	5.4
4.972	5.41
5.01	5.47
5.049	5.49
5.089	4.64
5.129	5.53
5.17	5.64
5.212	5.67
5.254	5.68
5.297	5.53
5.341	5.26
5.385	4.82
5.43	4.37
5.476	3.85
5.523	2.95
5.57	2.17
5.618	2.92
5.667	3.01
5.717	2.9
5.768	3
5.82	3.49
5.873	4.06
5.926	4.26
5.981	4.56
6.037	4.73
6.094	5.32
6.151	6.29
6.21	7.94
6.27	9.59
6.332	12.77
6.394	18.76
6.458	22.23
6.523	23.2
6.589	20.84
6.657	17.7
6.726	16.03
6.796	15.02
6.868	14.53
6.942	14.34
7.017	14.61
7.094	14.21
7.172	11.05
7.252	9.81
7.334	9.89
7.418	9.78
7.504	9.54
7.592	9.32
7.682	9.89
7.774	9.95
7.869	9.91
7.965	10.06
8.064	9.62
8.166	9.81
8.27	9.25
8.377	8.11
8.487	7.51
8.599	7.21
8.715	8.37
8.834	9
8.956	9.04
9.081	8.86
9.21	7.69
9.343	8.47
9.479	8.91
9.62	8.27
9.765	7.75
9.914	7.66
10.068	8.3
10.227	9.69
10.391	11.04
10.56	10.8
10.735	12.31
10.916	15.88
11.103	18.8
11.297	11.25
11.497	8.55
11.704	5.47
11.92	5.12
12.143	5.25
12.375	5.3
12.616	5.3
12.866	5.16
13.126	5.64
13.398	5.65
13.68	4.18
13.975	3.64
