Name: Kainite MgSO4 * KCL * 3H2O
Type: Mineral
Class: Chlorides
Subclass: None
Particle Size: Unsieved coarse powder
Sample No.: NMNH 83904
Owner: Smithsonian Institute, National Museum of Nat. History
Origin: Stassfurt, Germany
Description: NAME=Kainite from Stassfurt, Germany - NMNH 83904
Measurement: Directional Hemispherical Reflectance
X Units: Wavelength (micrometers)
Y Units: Reflectance (percent)
wavelength	value
0.4	44.9829
0.414	46.9813
0.428	48.6986
0.442	50.2449
0.456	51.1426
0.47	51.623
0.484	52.0758
0.498	52.6317
0.512	53.2026
0.526	53.6803
0.54	54.0825
0.554	54.3869
0.568	54.6264
0.582	54.8201
0.596	54.9583
0.61	55.0542
0.624	55.1033
0.638	55.1519
0.652	55.1463
0.666	55.1586
0.68	55.1853
0.694	55.183
0.708	55.1674
0.722	55.2023
0.736	55.1609
0.75	55.1156
0.764	55.0636
0.778	54.9819
0.792	54.9325
0.806	54.9571
0.82	54.9023
0.834	54.8713
0.848	54.8218
0.862	54.3901
0.876	54.8153
0.89	54.5491
0.904	54.3527
0.918	54.2509
0.932	54.3273
0.946	54.1989
0.96	53.7168
0.974	53.3496
0.988	52.4867
1.002	51.824
1.016	51.3722
1.03	51.4884
1.044	52.0668
1.058	52.5822
1.072	52.6425
1.086	52.6774
1.1	52.6706
1.114	52.6121
1.128	52.4387
1.142	51.9248
1.156	51.4478
1.17	50.3467
1.184	48.7487
1.198	46.7851
1.212	46.2767
1.226	45.847
1.24	46.0194
1.254	46.2404
1.268	46.5783
1.282	47.4729
1.296	48.0267
1.31	48.1607
1.324	47.5757
1.338	46.4902
1.352	45.3172
1.366	43.7689
1.38	42.4698
1.394	41.0461
1.408	39.0654
1.422	35.826
1.436	31.171
1.45	26.0827
1.464	21.5204
1.478	18.9494
1.492	19.0854
1.506	19.6088
1.52	20.5561
1.534	20.9658
1.548	22.44
1.562	24.3444
1.576	26.2925
1.59	28.193
1.604	29.5554
1.618	30.0581
1.632	30.1249
1.646	30.1653
1.66	30.2399
1.674	30.1418
1.688	29.6583
1.702	29.2375
1.716	28.9067
1.73	28.6614
1.744	28.6343
1.758	28.5008
1.772	27.8214
1.786	26.9364
1.8	27.6364
1.814	28.4863
1.828	29.5972
1.842	30.3839
1.856	30.5542
1.87	30.3301
1.884	28.9008
1.898	25.9964
1.912	21.7578
1.926	17.4338
1.94	13.9215
1.954	11.0155
1.968	8.4846
1.982	8.3855
1.996	9.6514
2.01	9.7733
2.024	11.2851
2.038	13.203
2.052	14.1929
2.066	15.1154
2.08	15.7878
2.094	16.2703
2.108	16.7481
2.122	17.5258
2.136	18.7428
2.15	19.7671
2.164	20.3483
2.178	20.6039
2.192	20.6462
2.206	20.7788
2.22	21.1192
2.234	21.7203
2.248	22.3923
2.262	23.1053
2.276	23.6381
2.29	24.1776
2.304	24.2392
2.318	23.7942
2.332	22.534
2.346	21.0124
2.36	19.1662
2.374	17.0134
2.388	14.7872
2.402	12.8006
2.416	11.4223
2.43	10.2227
2.444	9.6117
2.458	8.9434
2.472	8.1862
2.486	7.8528
2.5	7.3439
2.509	6.901
2.517	6.9422
2.526	7.2409
2.535	7.21
2.543	7.5499
2.552	7.1894
2.561	6.6641
2.57	6.7362
2.579	7.7044
2.588	8.0546
2.597	8.343
2.606	8.8683
2.615	8.8683
2.624	9.2082
2.634	8.9507
2.643	8.9095
2.653	8.2606
2.662	7.8383
2.672	7.2924
2.681	7.0761
2.691	6.3757
2.701	6.0152
2.711	4.9337
2.721	4.1921
2.731	3.8831
2.741	2.7707
2.751	2.2454
2.761	1.8746
2.772	1.6068
2.782	1.4111
2.793	1.2772
2.803	1.0094
2.814	0.927
2.825	0.8652
2.835	0.9167
2.846	0.927
2.857	0.9476
2.868	0.8755
2.879	0.8137
2.891	1.1433
2.902	0.9682
2.913	0.9785
2.925	1.0197
2.937	1.2051
2.948	1.0815
2.96	1.5244
2.972	1.4626
2.984	2.0085
2.996	2.0085
3.008	2.0291
3.02	1.8849
3.033	1.8643
3.045	1.8437
3.058	1.8746
3.07	1.7819
3.083	1.8849
3.096	1.9055
3.109	1.854
3.122	1.8437
3.135	1.8128
3.149	1.7613
3.162	1.8334
3.176	1.8231
3.189	1.8334
3.203	1.7922
3.217	1.8334
3.231	1.9673
3.245	2.1733
3.259	1.9879
3.274	2.1218
3.288	2.1218
3.303	2.1527
3.318	1.9776
3.333	2.1939
3.348	2.2351
3.363	2.3381
3.378	2.2969
3.394	2.472
3.409	2.5853
3.425	2.7501
3.441	2.9046
3.457	3.0385
3.473	3.2548
3.49	3.2342
3.506	3.4299
3.523	3.708
3.54	3.9552
3.557	4.3363
3.574	4.7277
3.591	5.1912
3.609	5.6444
3.626	6.0564
3.644	6.6435
3.662	7.0658
3.68	7.4881
3.699	7.8898
3.717	8.4254
3.736	8.755
3.755	9.0743
3.774	9.3112
3.794	9.682
3.813	9.8468
3.833	9.8571
3.853	9.9292
3.873	9.7747
3.893	9.5687
3.914	9.3833
3.935	9.0537
3.956	8.7447
3.977	8.4872
3.998	8.0134
4.02	7.4778
4.042	7.21
4.064	6.9319
4.086	6.6641
4.109	6.2727
4.132	5.9946
4.155	5.7783
4.179	5.4899
4.202	5.0367
4.226	4.5423
4.251	3.9346
4.275	3.7698
4.3	3.6462
4.325	3.4814
4.35	3.09
4.376	2.9973
4.402	3.0385
4.428	2.7707
4.455	2.575
4.482	2.4102
4.509	2.266
4.537	2.2763
4.565	2.3072
4.593	2.3381
4.622	2.369
4.651	2.5338
4.68	2.8325
4.71	2.8531
4.74	3.0591
4.771	3.4917
4.802	3.6668
4.833	3.9037
4.865	4.1612
4.897	4.3569
4.929	4.6865
4.962	4.8822
4.996	5.047
5.03	5.1603
5.064	5.3148
5.099	5.4178
5.134	5.5002
5.17	5.5826
5.206	5.4487
5.243	5.2324
5.281	5.0367
5.319	4.9028
5.357	4.7277
5.396	4.7174
5.436	4.6144
5.476	4.3363
5.517	4.1715
5.558	3.8522
5.6	3.5741
5.643	3.1312
5.686	2.8119
5.73	2.3484
5.775	1.9879
5.82	1.5244
5.866	1.1948
5.913	1.133
5.96	0.9991
6.009	1.0197
6.058	1.0403
6.108	1.3493
6.159	1.4626
6.21	1.4523
6.263	1.4111
6.316	1.4523
6.37	1.3699
6.426	1.4008
6.482	1.3493
6.539	1.339
6.597	1.4317
6.657	1.3905
6.717	1.3699
6.778	1.3081
6.841	1.3184
6.905	1.3596
6.97	1.4008
7.036	1.2978
7.103	1.339
7.172	1.2463
7.242	1.236
7.314	1.236
7.387	1.1021
7.461	1.0506
7.537	1.0197
7.614	0.9785
7.694	0.8961
7.774	0.7725
7.857	0.7107
7.941	0.4944
8.027	0.4017
8.115	0.2987
8.205	0.4326
8.297	2.8737
8.391	7.3851
8.487	11.4124
8.585	3.8831
8.686	5.3354
8.789	13.9874
8.894	10.4442
9.002	5.3045
9.113	4.0376
9.226	3.5226
9.343	3.1621
9.462	2.987
9.585	2.8222
9.71	2.3278
9.839	2.6677
9.972	2.5544
10.108	2.472
10.247	2.369
10.391	2.3175
10.539	2.0291
10.691	1.8849
10.848	1.648
11.009	1.6377
11.175	1.5759
11.346	1.4317
11.522	1.3493
11.704	1.2154
11.892	1.0712
12.086	1.3802
12.287	1.4729
12.494	1.6686
12.708	1.6068
12.93	1.6995
13.16	1.957
13.398	2.1321
13.644	1.8334
13.9	1.5965
