Name: Epsomite MgSO4 * 7H2O
Type: Mineral
Class: Sulfate
Subclass: None
Particle Size: Unsieved coarse powder
Sample No.: None
Owner: USGS
Origin: "Epsom Salts"  - commercial product
Description: Epsomite - commercial product
Measurement: Directional Hemispherical Reflectance
X Units: Wavelength (micrometers)
Y Units: Reflectance (percent)
wavelength	value
0.4	32.2534
0.414	32.2556
0.428	32.267
0.442	32.2736
0.456	32.3177
0.47	32.2841
0.484	32.3086
0.498	32.3906
0.512	32.3462
0.526	32.3287
0.54	32.3383
0.554	32.3346
0.568	32.3349
0.582	32.3352
0.596	32.3177
0.61	32.2754
0.624	32.2445
0.638	32.2328
0.652	32.2167
0.666	32.1955
0.68	32.1504
0.694	32.1252
0.708	32.0786
0.722	32.0468
0.736	31.967
0.75	31.8034
0.764	31.8055
0.778	31.8059
0.792	31.848
0.806	31.8697
0.82	31.8449
0.834	31.8145
0.848	31.7568
0.862	32.0792
0.876	32.0514
0.89	31.917
0.904	31.6574
0.918	31.641
0.932	31.3618
0.946	31.0603
0.96	30.3246
0.974	28.5153
0.988	28.2728
1.002	28.952
1.016	29.2953
1.03	29.8755
1.044	30.3267
1.058	30.6178
1.072	30.8658
1.086	30.8002
1.1	30.7502
1.114	30.5318
1.128	30.2965
1.142	29.9169
1.156	29.0281
1.17	27.5715
1.184	25.73
1.198	24.7613
1.212	24.3591
1.226	24.0597
1.24	23.896
1.254	23.8847
1.268	24.1959
1.282	24.2082
1.296	24.0665
1.31	23.2434
1.324	21.9598
1.338	20.3296
1.352	19.2982
1.366	18.842
1.38	17.9113
1.394	15.9375
1.408	13.0154
1.422	9.7397
1.436	8.0323
1.45	8.5155
1.464	8.206
1.478	8.1777
1.492	8.4753
1.506	8.7487
1.52	9.0604
1.534	9.2454
1.548	9.4057
1.562	9.6357
1.576	9.6024
1.59	9.6648
1.604	9.4721
1.618	9.3456
1.632	9.1863
1.646	8.9996
1.66	8.8892
1.674	8.8287
1.688	8.7279
1.702	8.7052
1.716	8.7217
1.73	8.5911
1.744	8.5596
1.758	8.3777
1.772	8.3675
1.786	8.369
1.8	8.4838
1.814	8.5402
1.828	8.5665
1.842	8.4273
1.856	8.2555
1.87	7.9094
1.884	7.2554
1.898	6.5153
1.912	5.6746
1.926	4.8205
1.94	4.1379
1.954	3.678
1.968	3.8774
1.982	4.1204
1.996	4.4029
2.01	4.6831
2.024	4.8438
2.038	4.8525
2.052	4.9112
2.066	4.8869
2.08	4.8805
2.094	4.7454
2.108	4.6612
2.122	4.4372
2.136	4.5346
2.15	4.5437
2.164	4.3398
2.178	4.306
2.192	4.4491
2.206	4.6669
2.22	4.8241
2.234	4.9141
2.248	4.8821
2.262	4.9983
2.276	5.2257
2.29	5.3057
2.304	5.2971
2.318	5.1718
2.332	5.0305
2.346	4.9179
2.36	4.7756
2.374	4.579
2.388	4.377
2.402	4.196
2.416	3.919
2.43	3.878
2.444	3.7655
2.458	3.7768
2.472	3.4105
2.486	3.3759
2.5	3.3475
2.509	3.1724
2.517	3.0282
2.526	2.9767
2.535	2.987
2.543	2.9046
2.552	2.8222
2.561	2.8428
2.57	2.9561
2.579	2.6677
2.588	2.7089
2.597	2.781
2.606	2.7192
2.615	2.8119
2.624	2.5132
2.634	2.4102
2.643	2.1424
2.653	2.06
2.662	1.8643
2.672	1.648
2.681	1.3596
2.691	1.442
2.701	1.0609
2.711	0.8755
2.721	0.9167
2.731	0.5562
2.741	0.4326
2.751	0.3296
2.761	0.3708
2.772	0.2575
2.782	0.5047
2.793	0.5356
2.803	0.5665
2.814	0.4326
2.825	0.5562
2.835	0.5356
2.846	0.4738
2.857	0.6901
2.868	0.5871
2.879	0.4635
2.891	0.7004
2.902	0.8446
2.913	0.7519
2.925	1.0403
2.937	1.1639
2.948	1.2566
2.96	1.3287
2.972	1.1639
2.984	1.6068
2.996	1.3493
3.008	1.4626
3.02	1.5244
3.033	1.3802
3.045	1.3802
3.058	1.2978
3.07	1.5759
3.083	1.4832
3.096	1.8025
3.109	1.648
3.122	1.545
3.135	1.5656
3.149	1.5553
3.162	1.4317
3.176	1.5038
3.189	1.3802
3.203	1.3081
3.217	1.4111
3.231	1.3493
3.245	1.3802
3.259	1.4111
3.274	1.3596
3.288	1.3596
3.303	1.5141
3.318	1.5141
3.333	1.4523
3.348	1.3802
3.363	1.5862
3.378	1.5965
3.394	1.5553
3.409	1.5965
3.425	1.7613
3.441	1.8952
3.457	1.957
3.473	2.1527
3.49	2.1527
3.506	2.3793
3.523	2.4926
3.54	2.7913
3.557	2.7604
3.574	3.0179
3.591	3.1003
3.609	3.2651
3.626	3.3887
3.644	3.5741
3.662	3.7389
3.68	3.8934
3.699	4.0479
3.717	3.9346
3.736	4.1818
3.755	4.1612
3.774	4.2127
3.794	4.12
3.813	4.12
3.833	3.9552
3.853	3.7801
3.873	3.6256
3.893	3.4711
3.914	3.2548
3.935	3.0282
3.956	2.7913
3.977	2.3999
3.998	2.369
4.02	2.1218
4.042	1.9055
4.064	1.6892
4.086	1.7201
4.109	1.545
4.132	1.5038
4.155	1.4317
4.179	1.4935
4.202	1.3493
4.226	1.3802
4.251	1.4008
4.275	1.3081
4.3	1.3596
4.325	1.2669
4.35	1.2978
4.376	1.2772
4.402	1.3287
4.428	1.3184
4.455	1.3081
4.482	1.4214
4.509	1.4111
4.537	1.4935
4.565	1.4935
4.593	1.5038
4.622	1.6274
4.651	1.6789
4.68	1.6274
4.71	1.6068
4.74	1.6171
4.771	1.5965
4.802	1.7201
4.833	1.6583
4.865	1.8025
4.897	1.9776
4.929	2.1424
4.962	2.2351
4.996	2.2866
5.03	2.4308
5.064	2.4411
5.099	2.4617
5.134	2.4205
5.17	2.4617
5.206	2.3999
5.243	2.3381
5.281	2.3484
5.319	2.2763
5.357	2.1733
5.396	2.163
5.436	2.0703
5.476	1.957
5.517	1.7922
5.558	1.6789
5.6	1.545
5.643	1.4008
5.686	1.1433
5.73	1.0609
5.775	0.8755
5.82	0.7931
5.866	0.7107
5.913	0.5974
5.96	0.618
6.009	0.7004
6.058	0.8961
6.108	1.0712
6.159	0.9682
6.21	1.0609
6.263	1.0197
6.316	0.9579
6.37	0.9682
6.426	0.9682
6.482	0.9682
6.539	1.0609
6.597	0.9579
6.657	1.0609
6.717	0.9682
6.778	0.9682
6.841	0.9476
6.905	1.0094
6.97	0.9476
7.036	0.8755
7.103	0.9064
7.172	0.8137
7.242	0.7931
7.314	0.7725
7.387	0.7519
7.461	0.6901
7.537	0.618
7.614	0.6077
7.694	0.5974
7.774	0.4944
7.857	0.5459
7.941	0.4429
8.027	0.412
8.115	0.4017
8.205	0.3399
8.297	0.3605
8.391	0.3502
8.487	0.6798
8.585	1.6995
8.686	3.0385
8.789	4.6041
8.894	6.3242
9.002	7.1173
9.113	6.592
9.226	5.2633
9.343	3.8213
9.462	2.7707
9.585	2.2248
9.71	2.06
9.839	1.6789
9.972	1.6171
10.108	1.3699
10.247	1.4832
10.391	1.4008
10.539	1.3287
10.691	1.1845
10.848	1.1227
11.009	0.9991
11.175	0.9476
11.346	0.9167
11.522	0.7931
11.704	0.8446
11.892	0.7313
12.086	0.8549
12.287	0.6283
12.494	0.618
12.708	0.7004
12.93	0.9373
13.16	0.9373
13.398	1.0609
13.644	0.9785
13.9	1.2154
