Name: Basalt
Type: Rock
Class: Igneous
Subclass: Mafic
Particle Size: Whole rock chips
Sample No.: ba9c1f
Owner: Larry Rowan, USGS
Origin: Wadi Salima, Jordan
Description: dark gray vesicular basalt
Measurement: Reflectance
X Units: Wavelength (micrometers)
Y Units: Reflectance (percent)
wavelength	value
0.4	10.1
0.408	10
0.416	10
0.424	9.7
0.432	9.4
0.44	9
0.448	8.7
0.456	8.5
0.464	8.2
0.472	7.8
0.48	7.8
0.488	7.5
0.496	7.5
0.504	7.4
0.512	7.4
0.52	7.2
0.528	7.2
0.536	7.1
0.544	6.9
0.552	7.1
0.56	7.2
0.568	7.1
0.576	7.2
0.584	7.1
0.592	7.1
0.6	6.9
0.608	6.9
0.616	7.1
0.624	7.1
0.632	7.1
0.64	7.1
0.648	7.2
0.656	7.2
0.664	7.2
0.672	7.2
0.68	7.4
0.688	7.4
0.696	7.1
0.704	7.2
0.712	7.5
0.72	7.4
0.728	7.5
0.736	7.5
0.744	7.5
0.752	7.5
0.76	7.5
0.768	7.5
0.776	7.5
0.784	7.5
0.792	7.6
0.8	7.9
0.832	7.9
0.864	8.1
0.896	8.3
0.928	8.3
0.96	8.2
0.992	8.3
1.024	8.2
1.056	8.2
1.088	8.2
1.12	8.1
1.152	7.9
1.184	7.9
1.216	7.8
1.248	7.8
1.28	7.7
1.312	7.6
1.344	7.6
1.376	7.3
1.408	7.3
1.44	7.3
1.472	7.3
1.504	7.2
1.536	7.3
1.568	7.4
1.6	7.2
1.632	7.2
1.664	7.1
1.696	7.1
1.728	7.2
1.76	7
1.792	7
1.824	7
1.856	6.8
1.888	6.6
1.92	6.3
1.952	6.5
1.984	6.5
2.016	6.6
2.048	6.7
2.08	6.7
2.102	5.91
2.109	6.14
2.116	5.88
2.123	5.89
2.13	6.01
2.137	5.89
2.144	5.86
2.151	6.01
2.158	5.8
2.165	6.07
2.173	5.99
2.18	5.96
2.187	5.9
2.195	5.83
2.202	5.66
2.21	5.78
2.217	5.82
2.225	5.98
2.232	5.78
2.24	5.81
2.248	5.88
2.256	5.98
2.264	5.67
2.272	5.95
2.28	5.96
2.288	5.93
2.296	5.87
2.304	5.71
2.312	5.8
2.32	5.67
2.329	5.97
2.337	5.85
2.346	5.85
2.354	5.69
2.363	5.69
2.371	5.68
2.38	5.68
2.389	5.68
2.398	5.81
2.406	5.56
2.415	5.73
2.424	5.52
2.434	5.62
2.443	5.59
2.452	5.37
2.461	5.36
2.471	5.61
2.48	5.34
2.49	5.57
2.499	5.41
2.509	5.27
2.519	5.38
2.528	5.39
2.538	5.24
2.548	5.14
2.558	5.08
2.569	5.14
2.579	5.29
2.589	5.15
2.599	5.26
2.61	5.07
2.62	4.91
2.631	4.78
2.642	4.93
2.653	4.57
2.664	4.47
2.675	4.34
2.686	4.04
2.697	3.41
2.708	3.05
2.719	2.79
2.731	3.07
2.742	2.51
2.754	2.43
2.766	2.61
2.778	2.8
2.79	2.78
2.802	2.7
2.814	2.72
2.826	2.59
2.838	2.79
2.851	2.86
2.864	2.97
2.876	2.85
2.889	2.86
2.902	2.81
2.915	2.87
2.928	2.7
2.942	2.79
2.955	2.88
2.968	2.91
2.982	2.84
2.996	2.88
3.01	2.88
3.024	2.95
3.038	2.8
3.052	2.87
3.067	2.92
3.081	2.96
3.096	3.04
3.111	3.08
3.126	3.05
3.141	2.95
3.156	3.08
3.172	3.13
3.187	3.26
3.203	3.25
3.219	3.23
3.235	3.22
3.251	3.31
3.268	3.45
3.284	3.48
3.301	3.43
3.318	3.53
3.335	3.54
3.352	3.46
3.37	3.64
3.387	3.65
3.405	3.74
3.423	3.76
3.441	3.83
3.46	3.81
3.478	3.68
3.497	3.87
3.516	3.99
3.535	4.1
3.554	4.15
3.574	4.22
3.594	4.26
3.614	4.24
3.634	4.32
3.655	4.35
3.675	4.32
3.696	4.46
3.717	4.42
3.739	4.41
3.761	4.48
3.782	4.41
3.805	4.41
3.827	4.28
3.85	4.23
3.873	4.24
3.896	4.19
3.92	4.15
3.944	4.13
3.968	3.98
3.992	4.05
4.017	4.13
4.042	4.33
4.067	4.4
4.093	4.45
4.119	4.46
4.145	4.47
4.172	4.42
4.199	4.37
4.226	3.87
4.254	4.15
4.282	3.91
4.311	4.14
4.34	4.29
4.369	4.37
4.398	4.28
4.428	4.28
4.459	4.25
4.49	4.21
4.521	4.16
4.553	4.12
4.585	4.09
4.618	4.04
4.651	3.92
4.684	3.95
4.719	3.95
4.753	3.84
4.788	3.85
4.824	3.78
4.86	3.8
4.897	3.74
4.934	3.71
4.972	3.66
5.01	3.65
5.049	3.59
5.089	3.59
5.129	3.56
5.17	3.65
5.212	3.56
5.254	3.59
5.297	3.55
5.341	3.48
5.385	3.49
5.43	3.41
5.476	3.26
5.523	3.19
5.57	2.93
5.618	3.14
5.667	3.05
5.717	2.95
5.768	2.78
5.82	2.55
5.873	2.33
5.926	2.31
5.981	2.08
6.037	1.83
6.094	2.02
6.151	2.1
6.21	2.44
6.27	2.86
6.332	3.18
6.394	4.31
6.458	6.15
6.523	6.18
6.589	5.75
6.657	5.73
6.726	5.47
6.796	5.28
6.868	5.03
6.942	5.05
7.017	4.97
7.094	4.79
7.172	3.85
7.252	3.34
7.334	3.12
7.418	3.1
7.504	3.03
7.592	3.04
7.682	2.99
7.774	2.99
7.869	2.96
7.965	2.91
8.064	2.84
8.166	2.78
8.27	2.71
8.377	2.69
8.487	2.89
8.599	3.51
8.715	4.35
8.834	5.52
8.956	6.85
9.081	8.1
9.21	8.5
9.343	9.62
9.479	10.37
9.62	9.79
9.765	8.66
9.914	7.86
10.068	7.09
10.227	6.62
10.391	6.11
10.56	5.66
10.735	5.48
10.916	5.59
11.103	5.53
11.297	6.9
11.497	5.03
11.704	4.27
11.92	3.6
12.143	3.37
12.375	3.03
12.616	2.81
12.866	2.55
13.126	2.55
13.398	2.48
13.68	2.37
13.975	2.25
