Name: Basalt
Type: Rock
Class: Igneous
Subclass: Mafic
Particle Size: Whole rock chips
Sample No.: ba2b1c
Owner: Larry Rowan, USGS
Origin: Wadi Zerqa Ma'in, Jordan
Description: dark gray basalt
Measurement: Reflectance
X Units: Wavelength (micrometers)
Y Units: Reflectance (percent)
wavelength	value
0.4	11.61
0.408	11.41
0.416	11.41
0.424	11.11
0.432	10.81
0.44	10.41
0.448	10.31
0.456	9.91
0.464	9.21
0.472	8.91
0.48	8.81
0.488	8.71
0.496	8.81
0.504	8.61
0.512	8.61
0.52	8.51
0.528	8.31
0.536	8.51
0.544	8.51
0.552	8.61
0.56	9.11
0.568	9.11
0.576	8.91
0.584	9.11
0.592	9.11
0.6	8.91
0.608	9.31
0.616	9.21
0.624	9.11
0.632	9.21
0.64	9.21
0.648	9.21
0.656	9.21
0.664	9.21
0.672	9.31
0.68	9.31
0.688	9.31
0.696	9.31
0.704	9.21
0.712	9.41
0.72	9.41
0.728	9.41
0.736	9.41
0.744	9.51
0.752	9.71
0.76	9.71
0.768	9.91
0.776	9.91
0.784	9.81
0.792	9.71
0.8	9.71
0.832	9.51
0.864	9.41
0.896	9.51
0.928	9.31
0.96	9.31
0.992	9.31
1.024	9.21
1.056	9.31
1.088	9.21
1.12	9.31
1.152	9.21
1.184	9.11
1.216	9.11
1.248	8.81
1.28	8.71
1.312	8.81
1.344	8.81
1.376	8.61
1.408	8.61
1.44	8.61
1.472	8.41
1.504	8.31
1.536	8.61
1.568	8.41
1.6	8.61
1.632	8.41
1.664	8.41
1.696	8.41
1.728	8.31
1.76	8.21
1.792	8.31
1.824	8.31
1.856	8.21
1.888	8.01
1.92	8.01
1.952	7.81
1.984	8.01
2.016	8.11
2.048	8.21
2.08	8.21
2.102	8.12
2.109	8.06
2.116	8.12
2.123	8.24
2.13	7.96
2.137	8.31
2.144	7.94
2.151	8.34
2.158	8.07
2.165	7.97
2.173	7.9
2.18	8.04
2.187	7.94
2.195	8.01
2.202	7.72
2.21	7.54
2.217	8.06
2.225	7.92
2.232	7.9
2.24	7.67
2.248	7.65
2.256	7.52
2.264	7.58
2.272	7.81
2.28	7.64
2.288	7.58
2.296	7.49
2.304	7.48
2.312	7.63
2.32	7.51
2.329	7.55
2.337	7.54
2.346	7.31
2.354	7.35
2.363	7.44
2.371	7.26
2.38	7.47
2.389	7.25
2.398	7.16
2.406	7.22
2.415	7.29
2.424	7.14
2.434	7.15
2.443	7.15
2.452	7.01
2.461	7.21
2.471	7.16
2.48	6.97
2.49	7.14
2.499	7.03
2.509	6.98
2.519	6.94
2.528	6.94
2.538	6.96
2.548	6.98
2.558	6.77
2.569	6.73
2.579	6.65
2.589	6.72
2.599	6.62
2.61	6.63
2.62	6.51
2.631	6.32
2.642	6.52
2.653	6.49
2.664	6.2
2.675	6.04
2.686	5.95
2.697	5.68
2.708	4.98
2.719	4.54
2.731	4.66
2.742	4.45
2.754	4.16
2.766	4.17
2.778	4.21
2.79	4.26
2.802	4.17
2.814	4.36
2.826	4.46
2.838	4.16
2.851	4.32
2.864	4.16
2.876	4.33
2.889	4.32
2.902	4.35
2.915	4.12
2.928	4.29
2.942	4.4
2.955	4.27
2.968	4.36
2.982	4.2
2.996	4.26
3.01	4.35
3.024	4.26
3.038	4.3
3.052	4.26
3.067	4.28
3.081	4.26
3.096	4.32
3.111	4.21
3.126	4.38
3.141	4.3
3.156	4.24
3.172	4.29
3.187	4.36
3.203	4.37
3.219	4.43
3.235	4.41
3.251	4.44
3.268	4.36
3.284	4.47
3.301	4.55
3.318	4.37
3.335	4.55
3.352	4.56
3.37	4.64
3.387	4.67
3.405	4.61
3.423	4.66
3.441	4.79
3.46	4.66
3.478	4.71
3.497	4.69
3.516	4.76
3.535	4.8
3.554	4.85
3.574	4.83
3.594	4.78
3.614	4.77
3.634	4.76
3.655	4.88
3.675	4.83
3.696	4.77
3.717	4.84
3.739	4.8
3.761	4.87
3.782	4.84
3.805	4.92
3.827	4.74
3.85	4.8
3.873	4.83
3.896	4.81
3.92	4.76
3.944	4.73
3.968	4.71
3.992	4.71
4.017	4.69
4.042	4.66
4.067	4.71
4.093	4.6
4.119	4.58
4.145	4.62
4.172	4.52
4.199	4.52
4.226	4.28
4.254	4.38
4.282	4.21
4.311	4.26
4.34	4.34
4.369	4.32
4.398	4.3
4.428	4.26
4.459	4.22
4.49	4.21
4.521	4.1
4.553	4.08
4.585	4.03
4.618	4.01
4.651	3.95
4.684	3.82
4.719	3.91
4.753	3.83
4.788	3.77
4.824	3.76
4.86	3.73
4.897	3.67
4.934	3.64
4.972	3.56
5.01	3.54
5.049	3.51
5.089	3.45
5.129	3.43
5.17	3.33
5.212	3.32
5.254	3.32
5.297	3.29
5.341	3.2
5.385	3.18
5.43	3.12
5.476	3.02
5.523	2.98
5.57	2.89
5.618	2.94
5.667	2.86
5.717	2.85
5.768	2.73
5.82	2.52
5.873	2.41
5.926	2.45
5.981	2.42
6.037	2.35
6.094	2.59
6.151	2.49
6.21	2.64
6.27	2.61
6.332	2.61
6.394	2.68
6.458	2.81
6.523	2.74
6.589	2.61
6.657	2.6
6.726	2.64
6.796	2.61
6.868	2.58
6.942	2.6
7.017	2.56
7.094	2.53
7.172	2.3
7.252	2.29
7.334	2.18
7.418	2.2
7.504	2.1
7.592	1.93
7.682	1.92
7.774	1.8
7.869	1.74
7.965	1.82
8.064	1.95
8.166	2.24
8.27	3.09
8.377	3.92
8.487	4.49
8.599	5.05
8.715	5.53
8.834	6.45
8.956	7.8
9.081	8.36
9.21	8.44
9.343	9.39
9.479	10.24
9.62	10.48
9.765	10.47
9.914	10.11
10.068	9.64
10.227	9.68
10.391	9.44
10.56	9.43
10.735	9.67
10.916	9.86
11.103	9.47
11.297	8.96
11.497	7.79
11.704	6.48
11.92	5.64
12.143	4.97
12.375	4.3
12.616	4.01
12.866	3.74
13.126	3.66
13.398	3.58
13.68	3.72
13.975	3.53
