Name: Limestone CaCO3
Type: Rock
Class: Sedimentary
Subclass: Limestone
Particle Size: Whole rock chips
Sample No.: ro359
Owner: Larry Rowan, USGS
Origin: Ronda, Spain
Description: white limestone
Measurement: Reflectance
X Units: Wavelength (micrometers)
Y Units: Reflectance (percent)
wavelength	value
0.4	54.1
0.408	54.7
0.416	55.9
0.424	56.8
0.432	57.8
0.44	58.4
0.448	58.7
0.456	59.2
0.464	59.6
0.472	59.2
0.48	60
0.488	60.3
0.496	61.2
0.504	61.7
0.512	62.4
0.52	61.7
0.528	63
0.536	63
0.544	63.7
0.552	64.1
0.56	64
0.568	64.6
0.576	66.1
0.584	65.3
0.592	65.4
0.6	66.2
0.608	65.4
0.616	65.6
0.624	65.9
0.632	66.8
0.64	66.1
0.648	66.4
0.656	66.3
0.664	66.7
0.672	67
0.68	67.4
0.688	67.2
0.696	67.9
0.704	68.4
0.712	68.3
0.72	68.4
0.728	69.2
0.736	68.9
0.744	68.9
0.752	69.6
0.76	69.4
0.768	69.4
0.776	69.5
0.784	69.6
0.792	69.8
0.8	70.2
0.832	70.8
0.864	71.2
0.896	71.2
0.928	70.8
0.96	70.3
0.992	70.1
1.024	69.7
1.056	70
1.088	69.7
1.12	69.6
1.152	69.8
1.184	69.7
1.216	70
1.248	70
1.28	69.8
1.312	69.4
1.344	68.7
1.376	66.2
1.408	60.7
1.44	59.3
1.472	60.1
1.504	63
1.536	64.5
1.568	65.9
1.6	66.8
1.632	66.4
1.664	66.9
1.696	65.8
1.728	63.6
1.76	64.3
1.792	64.5
1.824	61.3
1.856	54.3
1.888	48.6
1.92	44
1.952	44.1
1.984	44.2
2.016	50.7
2.048	54.6
2.08	55.3
2.102	56.92
2.109	56.62
2.116	56.91
2.123	56.85
2.13	55.71
2.137	55.5
2.144	53.25
2.151	51.76
2.158	51.87
2.165	52.45
2.173	53.81
2.18	54.53
2.187	54.91
2.195	54.71
2.202	54.16
2.21	53.01
2.217	52.36
2.225	50.94
2.232	48.88
2.24	47.13
2.248	45.05
2.256	42.87
2.264	40.9
2.272	38.62
2.28	35.87
2.288	33.37
2.296	31.56
2.304	31.24
2.312	29.65
2.32	28.85
2.329	26.69
2.337	25.35
2.346	26.48
2.354	29.5
2.363	34.53
2.371	38.44
2.38	41.56
2.389	42.97
2.398	42.27
2.406	41.91
2.415	41.19
2.424	38.82
2.434	37
2.443	34.62
2.452	32.36
2.461	29.27
2.471	26.6
2.48	24.21
2.49	23.17
2.499	22.02
2.509	21.74
2.519	21.02
2.528	18.87
2.538	18.57
2.548	21.22
2.558	25.81
2.569	29.9
2.579	32.35
2.589	34.24
2.599	36.05
2.61	36.64
2.62	36.62
2.631	36.4
2.642	35.59
2.653	34.48
2.664	33.2
2.675	31.03
2.686	27.93
2.697	24.03
2.708	20.53
2.719	16.02
2.731	15.16
2.742	13.85
2.754	12.94
2.766	12.09
2.778	11.19
2.79	10.53
2.802	10.53
2.814	9.96
2.826	9.75
2.838	9.58
2.851	9.29
2.864	9.07
2.876	8.93
2.889	8.62
2.902	8.5
2.915	8.47
2.928	8.34
2.942	8.22
2.955	8.37
2.968	8.34
2.982	8.36
2.996	8.36
3.01	8.41
3.024	8.37
3.038	8.5
3.052	8.57
3.067	8.54
3.081	8.7
3.096	8.69
3.111	8.81
3.126	9.14
3.141	9.2
3.156	9.52
3.172	9.89
3.187	10.15
3.203	10.42
3.219	10.53
3.235	10.6
3.251	10.61
3.268	10.61
3.284	10.4
3.301	10.08
3.318	9.45
3.335	8.04
3.352	6.55
3.37	6.84
3.387	6.77
3.405	6.62
3.423	6.67
3.441	6.75
3.46	6.46
3.478	5.92
3.497	6.42
3.516	7.24
3.535	8.91
3.554	10.1
3.574	10.45
3.594	12.08
3.614	12.93
3.634	13.48
3.655	13.85
3.675	13.98
3.696	13.9
3.717	13.53
3.739	12.75
3.761	11.97
3.782	10.55
3.805	8.32
3.827	7.28
3.85	6.81
3.873	6.67
3.896	6.53
3.92	6.33
3.944	5.64
3.968	5
3.992	5.42
4.017	6.68
4.042	8.02
4.067	9.02
4.093	9.72
4.119	10.43
4.145	11.18
4.172	11.62
4.199	11.98
4.226	12.17
4.254	12.14
4.282	12.19
4.311	12.01
4.34	11.86
4.369	12.37
4.398	12.19
4.428	11.56
4.459	10.7
4.49	9.94
4.521	9.61
4.553	9.51
4.585	9.28
4.618	8.63
4.651	7.53
4.684	7.51
4.719	8.7
4.753	9.75
4.788	9.99
4.824	9.85
4.86	9.69
4.897	9.57
4.934	9.46
4.972	9.32
5.01	9.31
5.049	9.27
5.089	7.69
5.129	8.62
5.17	8.36
5.212	7.93
5.254	7.45
5.297	6.97
5.341	6.31
5.385	5.73
5.43	5.07
5.476	4.33
5.523	3.45
5.57	2.71
5.618	3.64
5.667	3.4
5.717	3
5.768	2.83
5.82	2.74
5.873	2.63
5.926	2.34
5.981	2.15
6.037	2.01
6.094	1.93
6.151	2.12
6.21	2.72
6.27	4.4
6.332	8.28
6.394	18.74
6.458	34.91
6.523	34.74
6.589	31.22
6.657	27.79
6.726	24.19
6.796	21.4
6.868	19.55
6.942	18.21
7.017	18.01
7.094	16.82
7.172	12.75
7.252	10.82
7.334	10.49
7.418	10.18
7.504	9.88
7.592	9.54
7.682	9.77
7.774	9.65
7.869	9.5
7.965	9.37
8.064	8.98
8.166	8.96
8.27	8.72
8.377	8.12
8.487	7.69
8.599	7.53
8.715	8.1
8.834	8.65
8.956	8.79
9.081	8.58
9.21	7.59
9.343	8.18
9.479	7.96
9.62	7.65
9.765	6.97
9.914	6.77
10.068	6.87
10.227	7.11
10.391	7.26
10.56	7.12
10.735	7.38
10.916	8.14
11.103	8.72
11.297	15.79
11.497	7.96
11.704	7.14
11.92	7.23
12.143	6.87
12.375	6.4
12.616	6.02
12.866	5.75
13.126	5.75
13.398	5.49
13.68	4.49
13.975	3.73
