Name: Burkeite Na6(CO3)(SO4)2
Type: Mineral
Class: Carbonate
Subclass: None
Particle Size: Unsieved coarse powder
Sample No.: NMNH 105598
Owner: Smithsonian Institute, National Museum of Nat. History
Origin: Searles Lake, California
Description: Burkeite from Searles Lake, CA
Measurement: Directional Hemispherical Reflectance
X Units: Wavelength (micrometers)
Y Units: Reflectance (percent)
wavelength	value
0.4	57.2469
0.414	58.1983
0.428	59.2632
0.442	60.2911
0.456	61.2563
0.47	62.0512
0.484	62.855
0.498	63.6832
0.512	64.4324
0.526	65.2053
0.54	65.9692
0.554	66.6661
0.568	67.3239
0.582	67.8951
0.596	68.4296
0.61	68.8174
0.624	69.1538
0.638	69.4882
0.652	69.6605
0.666	69.9867
0.68	70.1467
0.694	70.3795
0.708	70.5914
0.722	70.7764
0.736	70.9616
0.75	71.0845
0.764	71.1789
0.778	71.2966
0.792	71.4036
0.806	71.4865
0.82	71.5046
0.834	71.6043
0.848	71.7462
0.862	71.7209
0.876	71.7555
0.89	71.8998
0.904	71.8834
0.918	71.8531
0.932	72.0449
0.946	71.9351
0.96	71.9614
0.974	71.945
0.988	71.852
1.002	72.0841
1.016	72.0657
1.03	72.0576
1.044	72.2286
1.058	72.2867
1.072	72.2998
1.086	72.4882
1.1	72.4098
1.114	72.5644
1.128	72.5473
1.142	72.3682
1.156	72.3031
1.17	72.3522
1.184	72.2068
1.198	72.1841
1.212	72.2312
1.226	72.2461
1.24	72.4634
1.254	72.355
1.268	72.5944
1.282	72.2707
1.296	72.457
1.31	72.22
1.324	72.3548
1.338	72.2125
1.352	71.9216
1.366	71.9675
1.38	71.7179
1.394	71.0152
1.408	69.6977
1.422	68.5793
1.436	67.2787
1.45	66.4319
1.464	65.9764
1.478	65.5663
1.492	65.7313
1.506	65.6606
1.52	65.9998
1.534	66.1509
1.548	66.7615
1.562	67.2428
1.576	67.5759
1.59	67.6461
1.604	67.8379
1.618	67.536
1.632	67.6659
1.646	67.4201
1.66	67.2406
1.674	66.7073
1.688	66.4314
1.702	66.221
1.716	65.8192
1.73	65.5942
1.744	65.2576
1.758	64.9185
1.772	64.9669
1.786	64.7306
1.8	64.8117
1.814	64.7389
1.828	64.6945
1.842	65.147
1.856	64.4861
1.87	63.5662
1.884	61.7465
1.898	58.467
1.912	55.3477
1.926	52.8899
1.94	50.7179
1.954	50.6301
1.968	51.8935
1.982	52.9894
1.996	54.1145
2.01	54.7459
2.024	55.1155
2.038	55.4382
2.052	55.6913
2.066	56.383
2.08	57.039
2.094	57.7011
2.108	58.483
2.122	59.1389
2.136	59.6248
2.15	59.6495
2.164	59.4929
2.178	59.2117
2.192	58.7462
2.206	58.5903
2.22	58.3866
2.234	58.3923
2.248	58.5617
2.262	57.9134
2.276	57.508
2.29	57.1275
2.304	56.4405
2.318	55.8664
2.332	55.2714
2.346	54.8175
2.36	54.447
2.374	53.8561
2.388	54.2379
2.402	54.3722
2.416	54.1752
2.43	54.0039
2.444	53.3303
2.458	52.6129
2.472	52.3959
2.486	51.7471
2.5	51.4279
2.509	50.6142
2.517	48.7808
2.526	47.4212
2.535	46.4942
2.543	45.5466
2.552	45.5775
2.561	45.5775
2.57	47.8847
2.579	49.0589
2.588	48.5542
2.597	49.4194
2.606	49.3061
2.615	49.8417
2.624	50.5833
2.634	50.2949
2.643	50.3567
2.653	49.1619
2.662	48.822
2.672	47.6581
2.681	47.6169
2.691	46.6899
2.701	45.1758
2.711	42.4978
2.721	40.0155
2.731	38.6971
2.741	34.9685
2.751	33.1969
2.761	30.6528
2.772	29.0048
2.782	27.1302
2.793	25.6058
2.803	23.9578
2.814	23.3089
2.825	22.1656
2.835	21.218
2.846	20.5691
2.857	20.2498
2.868	19.9305
2.879	19.3537
2.891	18.9108
2.902	18.4679
2.913	18.2825
2.925	18.3752
2.937	18.4679
2.948	18.5812
2.96	18.4267
2.972	18.5194
2.984	18.6739
2.996	18.7769
3.008	18.8696
3.02	18.9829
3.033	19.0241
3.045	18.9211
3.058	19.2713
3.07	19.3537
3.083	19.3331
3.096	19.4155
3.109	19.3846
3.122	19.4876
3.135	19.7966
3.149	19.8069
3.162	20.1056
3.176	20.5691
3.189	20.8575
3.203	21.0532
3.217	21.0017
3.231	21.1253
3.245	21.3107
3.259	21.3004
3.274	21.5888
3.288	21.6197
3.303	21.5785
3.318	21.424
3.333	21.1253
3.348	20.7648
3.363	19.4464
3.378	17.716
3.394	16.0062
3.409	13.6372
3.425	12.2982
3.441	11.0828
3.457	10.7223
3.473	11.124
3.49	12.9677
3.506	14.5024
3.523	15.45
3.54	17.1598
3.557	20.7545
3.574	23.6385
3.591	24.9878
3.609	27.1096
3.626	27.9645
3.644	28.1705
3.662	28.428
3.68	28.5619
3.699	28.1396
3.717	29.1078
3.736	29.252
3.755	28.7576
3.774	28.3044
3.794	27.8409
3.813	27.2435
3.833	26.6873
3.853	26.1414
3.873	25.4101
3.893	23.4119
3.914	15.7899
3.935	11.2682
3.956	9.3112
3.977	9.0022
3.998	8.8374
4.02	8.2194
4.042	7.9722
4.064	9.991
4.086	17.9014
4.109	21.7742
4.132	23.4119
4.155	23.6591
4.179	23.1544
4.202	21.6815
4.226	20.0747
4.251	17.9735
4.275	15.9959
4.3	13.9771
4.325	12.3291
4.35	11.2167
4.376	10.7532
4.402	10.3
4.428	10.3618
4.455	10.8047
4.482	12.2364
4.509	14.1728
4.537	14.111
4.565	11.1137
4.593	9.6923
4.622	8.4151
4.651	7.4984
4.68	6.5714
4.71	5.8298
4.74	5.4796
4.771	7.2615
4.802	12.6793
4.833	18.4576
4.865	21.4755
4.897	23.5664
4.929	24.6685
4.962	25.3689
4.996	25.6882
5.03	24.7406
5.064	25.5646
5.099	26.0693
5.134	25.8118
5.17	25.6779
5.206	25.3071
5.243	25.0187
5.281	24.5346
5.319	24.0402
5.357	23.4016
5.396	22.7939
5.436	21.5373
5.476	19.9614
5.517	18.8078
5.558	17.6233
5.6	14.6981
5.643	4.429
5.686	4.5732
5.73	11.5154
5.775	11.4124
5.82	10.3
5.866	9.0434
5.913	7.8692
5.96	6.6744
6.009	5.7474
6.058	4.6453
6.108	3.6359
6.159	2.9973
6.21	2.6368
6.263	2.5544
6.316	2.2454
6.37	2.0394
6.426	1.9261
6.482	1.6377
6.539	1.5244
6.597	1.5141
6.657	2.4514
6.717	3.4917
6.778	4.6144
6.841	3.3269
6.905	2.9973
6.97	2.5956
7.036	2.369
7.103	2.5441
7.172	3.5535
7.242	3.9449
7.314	4.5217
7.387	4.5217
7.461	4.1921
7.537	3.7801
7.614	3.2445
7.694	2.5441
7.774	1.8849
7.857	1.3493
7.941	1.03
8.027	0.8137
8.115	0.927
8.205	1.6686
8.297	5.3663
8.391	5.871
8.487	7.4778
8.585	7.622
8.686	6.0976
8.789	6.0976
8.894	6.4581
9.002	5.5105
9.113	4.3466
9.226	4.6968
9.343	4.9028
9.462	5.6032
9.585	6.3757
9.71	7.3027
9.839	7.4572
9.972	6.8701
10.108	6.8598
10.247	10.3
10.391	11.845
10.539	12.2158
10.691	12.3085
10.848	11.9583
11.009	11.0622
11.175	7.9516
11.346	2.5235
11.522	8.446
11.704	9.5069
11.892	13.0604
12.086	13.287
12.287	13.081
12.494	12.4321
12.708	11.5875
12.93	10.3309
13.16	9.5893
13.398	8.9301
13.644	7.9413
13.9	6.7465
