Name: Ulexite NaCaB5O6(OH)6 * 5H2O
Type: Mineral
Class: Borate
Subclass: None
Particle Size: Unsieved coarse powder
Sample No.: None
Owner: USGS
Origin: Boron, California
Description: Ulexite powder from Boron, California
Measurement: Directional Hemispherical Reflectance
X Units: Wavelength (micrometers)
Y Units: Reflectance (percent)
wavelength	value
0.4	72.3034
0.414	72.459
0.428	72.6102
0.442	72.783
0.456	72.9861
0.47	73.0826
0.484	73.1733
0.498	73.4214
0.512	73.4373
0.526	73.466
0.54	73.5249
0.554	73.6442
0.568	73.669
0.582	73.717
0.596	73.6999
0.61	73.6522
0.624	73.5841
0.638	73.5968
0.652	73.6114
0.666	73.6203
0.68	73.6139
0.694	73.5759
0.708	73.5231
0.722	73.4666
0.736	73.3305
0.75	73.0314
0.764	73.0581
0.778	73.1033
0.792	73.1865
0.806	73.2018
0.82	73.2639
0.834	73.316
0.848	73.2115
0.862	73.3029
0.876	73.6516
0.89	73.2261
0.904	72.7578
0.918	72.8153
0.932	72.3743
0.946	71.8825
0.96	70.2719
0.974	67.1411
0.988	66.7099
1.002	68.0217
1.016	68.8047
1.03	69.6699
1.044	70.5909
1.058	71.2252
1.072	71.4727
1.086	71.5159
1.1	71.1612
1.114	70.8693
1.128	70.4294
1.142	69.7774
1.156	68.2653
1.17	65.5792
1.184	62.5904
1.198	60.7708
1.212	60.1783
1.226	59.6084
1.24	59.4763
1.254	59.503
1.268	59.8458
1.282	59.9923
1.296	59.8955
1.31	58.3667
1.324	56.2652
1.338	53.7843
1.352	51.8969
1.366	50.9273
1.38	49.4381
1.394	45.6913
1.408	39.7628
1.422	31.9724
1.436	27.2066
1.45	29.0192
1.464	27.5738
1.478	27.738
1.492	28.9203
1.506	29.5805
1.52	30.664
1.534	31.1351
1.548	31.4956
1.562	32.0122
1.576	32.1781
1.59	32.1046
1.604	31.6947
1.618	31.3044
1.632	31.0048
1.646	30.5184
1.66	30.4892
1.674	30.1694
1.688	29.9839
1.702	29.837
1.716	29.789
1.73	29.5273
1.744	29.1876
1.758	29.177
1.772	28.9785
1.786	29.0721
1.8	29.2052
1.814	29.759
1.828	29.4865
1.842	29.0447
1.856	28.2262
1.87	27.0857
1.884	25.4161
1.898	22.6886
1.912	19.4613
1.926	16.4674
1.94	13.2322
1.954	10.91
1.968	11.7057
1.982	12.7281
1.996	13.8045
2.01	15.3923
2.024	15.8962
2.038	16.3388
2.052	16.3386
2.066	16.1023
2.08	15.826
2.094	15.592
2.108	15.1204
2.122	14.3036
2.136	14.4302
2.15	14.7332
2.164	14.0241
2.178	13.6748
2.192	14.2887
2.206	15.3207
2.22	15.9934
2.234	16.3648
2.248	16.3429
2.262	17.2285
2.276	18.0081
2.29	18.3012
2.304	18.3083
2.318	17.9428
2.332	17.6274
2.346	17.3018
2.36	16.5437
2.374	15.7884
2.388	14.7309
2.402	13.7124
2.416	12.8733
2.43	12.6317
2.444	11.891
2.458	11.469
2.472	10.4711
2.486	10.2008
2.5	10.2897
2.509	10.2794
2.517	10.6193
2.526	10.4236
2.535	10.5884
2.543	10.6914
2.552	11.0725
2.561	11.0931
2.57	10.8974
2.579	10.9283
2.588	10.4854
2.597	10.712
2.606	10.3309
2.615	10.4442
2.624	9.9395
2.634	9.3112
2.643	8.8168
2.653	8.3533
2.662	7.5808
2.672	7.1585
2.681	6.2521
2.691	5.665
2.701	4.8513
2.711	3.9243
2.721	3.0488
2.731	2.4102
2.741	1.8128
2.751	1.3081
2.761	1.1021
2.772	0.8446
2.782	1.2154
2.793	1.0197
2.803	0.9991
2.814	0.8961
2.825	0.9476
2.835	0.9064
2.846	0.9167
2.857	1.0197
2.868	0.9888
2.879	0.9888
2.891	0.9167
2.902	1.0094
2.913	1.0712
2.925	1.2566
2.937	1.442
2.948	1.339
2.96	1.2669
2.972	1.2463
2.984	1.236
2.996	1.2978
3.008	1.2051
3.02	1.3081
3.033	1.3081
3.045	1.3596
3.058	1.4729
3.07	1.3596
3.083	1.339
3.096	1.4214
3.109	1.4832
3.122	1.4832
3.135	1.5244
3.149	1.6377
3.162	1.5656
3.176	1.4832
3.189	1.5862
3.203	1.6892
3.217	1.8437
3.231	1.8643
3.245	1.9982
3.259	2.06
3.274	2.1424
3.288	2.0703
3.303	2.1218
3.318	2.1527
3.333	2.2248
3.348	2.3278
3.363	2.2454
3.378	2.1836
3.394	2.369
3.409	2.3175
3.425	2.3793
3.441	2.4205
3.457	2.5544
3.473	2.575
3.49	2.5853
3.506	2.6265
3.523	2.6059
3.54	2.7707
3.557	2.7707
3.574	2.8325
3.591	2.884
3.609	2.9561
3.626	3.0488
3.644	3.1518
3.662	3.0797
3.68	3.1724
3.699	3.0488
3.717	3.0076
3.736	2.9355
3.755	2.884
3.774	3.0591
3.794	2.9664
3.813	3.0179
3.833	2.9664
3.853	2.987
3.873	2.987
3.893	2.9355
3.914	2.7707
3.935	2.6059
3.956	2.5441
3.977	2.575
3.998	2.5647
4.02	2.6162
4.042	2.5956
4.064	2.6162
4.086	2.678
4.109	2.6883
4.132	2.7707
4.155	2.5647
4.179	2.4617
4.202	2.4926
4.226	2.7398
4.251	2.8634
4.275	2.8531
4.3	2.8222
4.325	2.9046
4.35	2.8634
4.376	2.884
4.402	2.8325
4.428	2.7707
4.455	2.781
4.482	2.7192
4.509	2.6986
4.537	2.7089
4.565	2.7192
4.593	2.7501
4.622	2.7604
4.651	2.8119
4.68	2.781
4.71	2.7913
4.74	2.8325
4.771	2.9458
4.802	2.9458
4.833	3.0488
4.865	3.1003
4.897	3.0694
4.929	3.0385
4.962	3.0591
4.996	3.0282
5.03	3.0488
5.064	3.0694
5.099	3.09
5.134	3.0282
5.17	3.0488
5.206	2.9252
5.243	2.8531
5.281	2.8222
5.319	2.8531
5.357	2.8325
5.396	2.8325
5.436	2.7707
5.476	2.7398
5.517	2.7398
5.558	2.7089
5.6	2.6368
5.643	2.5132
5.686	2.3896
5.73	2.1733
5.775	1.9055
5.82	1.6789
5.866	1.4317
5.913	1.339
5.96	1.0712
6.009	1.1639
6.058	1.1742
6.108	1.0918
6.159	1.133
6.21	1.2257
6.263	1.2669
6.316	1.2978
6.37	1.2566
6.426	1.2463
6.482	1.1536
6.539	1.03
6.597	0.8961
6.657	0.7313
6.717	0.721
6.778	0.7931
6.841	0.8034
6.905	1.2875
6.97	2.2351
7.036	2.1115
7.103	1.6583
7.172	1.6171
7.242	1.236
7.314	1.6068
7.387	1.7922
7.461	2.0291
7.537	2.4411
7.614	2.2145
7.694	1.6377
7.774	1.4729
7.857	1.2669
7.941	0.9888
8.027	0.8446
8.115	1.2875
8.205	1.9261
8.297	1.6068
8.391	1.6068
8.487	1.3493
8.585	1.1536
8.686	1.3699
8.789	1.6995
8.894	2.4926
9.002	2.9252
9.113	2.8428
9.226	3.0488
9.343	3.296
9.462	3.193
9.585	2.575
9.71	2.1939
9.839	3.5226
9.972	4.0376
10.108	3.3166
10.247	3.2754
10.391	2.7295
10.539	2.6059
10.691	2.3587
10.848	2.2557
11.009	1.8952
11.175	1.6583
11.346	2.8428
11.522	4.3672
11.704	4.0273
11.892	3.1415
12.086	3.4917
12.287	3.1827
12.494	2.8222
12.708	2.3999
12.93	2.0188
13.16	1.6892
13.398	2.3278
13.644	1.8849
13.9	2.3484
