Name: Dolomite  CaMgCO3
Type: Rock
Class: Sedimentary
Subclass: Dolomite
Particle Size: Whole rock chips
Sample No.: ro391
Owner: Larry Rowan, USGS
Origin: Ronda, Spain
Description: bluish gray dolomite
Measurement: Reflectance
X Units: Wavelength (micrometers)
Y Units: Reflectance (percent)
wavelength	value
0.4	23.2
0.408	22.7
0.416	22.7
0.424	22.2
0.432	22.3
0.44	22.3
0.448	22.2
0.456	22.2
0.464	21.9
0.472	21.9
0.48	21.9
0.488	21.6
0.496	21.7
0.504	22.1
0.512	22
0.52	22.2
0.528	22.3
0.536	22.5
0.544	22.3
0.552	22.5
0.56	22.7
0.568	23.1
0.576	23.3
0.584	23.4
0.592	23.4
0.6	23.4
0.608	23.3
0.616	23.2
0.624	23.8
0.632	23.8
0.64	23.7
0.648	23.8
0.656	24.2
0.664	24.1
0.672	24.3
0.68	24.3
0.688	24.4
0.696	24.5
0.704	24.4
0.712	24.4
0.72	24.5
0.728	24.7
0.736	24.7
0.744	24.9
0.752	24.8
0.76	24.8
0.768	24.9
0.776	24.7
0.784	25.2
0.792	25.2
0.8	25.3
0.832	25.9
0.864	25.9
0.896	26
0.928	26
0.96	26.3
0.992	26
1.024	26.3
1.056	26.3
1.088	26.1
1.12	26.3
1.152	26.4
1.184	26.1
1.216	26.1
1.248	26
1.28	26.1
1.312	26.1
1.344	25.9
1.376	25.8
1.408	25.6
1.44	25.5
1.472	25.4
1.504	25.5
1.536	25.6
1.568	25.4
1.6	25.5
1.632	25.6
1.664	25.4
1.696	25.5
1.728	25.5
1.76	25.4
1.792	25.5
1.824	25.4
1.856	24.8
1.888	24.2
1.92	23.6
1.952	23.7
1.984	24.2
2.016	24.7
2.048	24.8
2.08	25
2.102	23.85
2.109	23.66
2.116	23.84
2.123	23.73
2.13	23.91
2.137	23.85
2.144	23.89
2.151	23.4
2.158	23.97
2.165	23.46
2.173	23.66
2.18	23.32
2.187	23.13
2.195	22.83
2.202	22.53
2.21	21.93
2.217	21.85
2.225	22.42
2.232	22.18
2.24	22.65
2.248	22.47
2.256	22.14
2.264	21.76
2.272	21.53
2.28	21.06
2.288	20.93
2.296	21.05
2.304	20.42
2.312	20.01
2.32	20.06
2.329	19.62
2.337	19.83
2.346	21.18
2.354	21.54
2.363	22.2
2.371	22.05
2.38	22.17
2.389	21.94
2.398	21.72
2.406	21.53
2.415	21.29
2.424	20.64
2.434	20.15
2.443	19.24
2.452	18.5
2.461	18.3
2.471	18.25
2.48	18.02
2.49	17.09
2.499	16.41
2.509	16.01
2.519	15.79
2.528	16.78
2.538	17.98
2.548	19.38
2.558	19.64
2.569	20.34
2.579	20.38
2.589	20.24
2.599	20.28
2.61	20.2
2.62	19.97
2.631	19.91
2.642	19.5
2.653	18.86
2.664	18.23
2.675	17.23
2.686	14.71
2.697	10.98
2.708	10.1
2.719	8.33
2.731	6.94
2.742	5.84
2.754	5.44
2.766	5.3
2.778	5.52
2.79	5.76
2.802	5.89
2.814	6.02
2.826	6.01
2.838	5.96
2.851	5.71
2.864	5.73
2.876	5.54
2.889	5.38
2.902	5.35
2.915	5.12
2.928	5.34
2.942	5.29
2.955	5.19
2.968	5.22
2.982	5.26
2.996	5.33
3.01	5.42
3.024	5.35
3.038	5.43
3.052	5.41
3.067	5.5
3.081	5.42
3.096	5.49
3.111	5.7
3.126	5.72
3.141	5.82
3.156	6.14
3.172	6.12
3.187	6.35
3.203	6.38
3.219	6.56
3.235	6.58
3.251	6.63
3.268	6.34
3.284	6.07
3.301	4.39
3.318	4.46
3.335	4.47
3.352	4.59
3.37	4.9
3.387	4.69
3.405	4.46
3.423	4.41
3.441	3.81
3.46	3.88
3.478	4.13
3.497	5.06
3.516	6.68
3.535	8.03
3.554	8.37
3.574	9.35
3.594	9.68
3.614	9.9
3.634	10.04
3.655	10.07
3.675	9.93
3.696	9.57
3.717	8.81
3.739	7.74
3.761	5.72
3.782	4.4
3.805	3.97
3.827	4.59
3.85	4.37
3.873	3.73
3.896	3.58
3.92	3.16
3.944	3.1
3.968	3.25
3.992	4.09
4.017	5.24
4.042	6.54
4.067	7.7
4.093	8.42
4.119	8.77
4.145	8.76
4.172	9.22
4.199	9.2
4.226	8.75
4.254	8.26
4.282	7.98
4.311	8.22
4.34	8.8
4.369	8.97
4.398	8.18
4.428	7.38
4.459	7.61
4.49	7.8
4.521	7.03
4.553	6.45
4.585	5.77
4.618	5.27
4.651	5.42
4.684	6.59
4.719	7.09
4.753	7.24
4.788	7.19
4.824	7.19
4.86	7.04
4.897	6.87
4.934	6.73
4.972	6.49
5.01	6.29
5.049	5.43
5.089	5.61
5.129	5.46
5.17	5.06
5.212	4.67
5.254	4.26
5.297	3.83
5.341	3.54
5.385	3.13
5.43	2.51
5.476	1.79
5.523	1.77
5.57	1.94
5.618	2.1
5.667	2.14
5.717	2.11
5.768	2.12
5.82	2.14
5.873	2.12
5.926	2.12
5.981	2.13
6.037	2.3
6.094	2.49
6.151	3.74
6.21	4.94
6.27	8.43
6.332	18.24
6.394	24.26
6.458	23.52
6.523	21.25
6.589	18.72
6.657	16.2
6.726	14.63
6.796	13.73
6.868	13.05
6.942	12.97
7.017	12.78
7.094	8.65
7.172	7.34
7.252	6.62
7.334	6.47
7.418	6.3
7.504	6.18
7.592	6.27
7.682	5.94
7.774	6.16
7.869	6.3
7.965	6.1
8.064	5.82
8.166	5.92
8.27	6.53
8.377	5.69
8.487	5.91
8.599	5.76
8.715	5.42
8.834	5.25
8.956	4.87
9.081	4.5
9.21	4.53
9.343	4.79
9.479	4.93
9.62	5
9.765	4.84
9.914	4.56
10.068	4.27
10.227	4.23
10.391	4.19
10.56	4.08
10.735	3.96
10.916	4.23
11.103	9.81
11.297	9.1
11.497	4.66
11.704	3.61
11.92	3.57
12.143	3.31
12.375	3.09
12.616	3.06
12.866	2.9
13.126	2.57
13.398	2.19
13.68	2.65
13.975	2.54
