Name: Polyhalite K2Ca2Mg(SO4)4 * 2H2O
Type: Mineral
Class: Sulfate
Subclass: None
Particle Size: Unsieved coarse powder
Sample No.: NMNH 92669-4
Owner: Smithsonian Institute, National Museum of Nat. History
Origin: Carlsbad, New Mexico
Description: Polyhalite powder from Carlsbad, New Mexico
Measurement: Directional Hemispherical Reflectance
X Units: Wavelength (micrometers)
Y Units: Reflectance (percent)
wavelength	value
0.4	19.9379
0.414	20.1495
0.428	20.4496
0.442	20.9007
0.456	21.417
0.47	21.977
0.484	22.3651
0.498	22.7547
0.512	23.4156
0.526	24.0644
0.54	24.923
0.554	26.4924
0.568	29.3831
0.582	33.4311
0.596	37.4202
0.61	40.4188
0.624	42.4611
0.638	43.9201
0.652	45.1175
0.666	46.2182
0.68	47.3482
0.694	48.4226
0.708	49.4752
0.722	50.3802
0.736	51.0081
0.75	51.3092
0.764	51.3545
0.778	51.2277
0.792	50.9445
0.806	50.6133
0.82	50.3431
0.834	50.1376
0.848	50.08
0.862	49.8234
0.876	49.9197
0.89	50.4214
0.904	50.5587
0.918	51.041
0.932	51.6609
0.946	52.3294
0.96	52.831
0.974	53.4003
0.988	53.8781
1.002	54.0978
1.016	54.222
1.03	54.624
1.044	55.1309
1.058	55.6496
1.072	55.9601
1.086	56.0998
1.1	56.2022
1.114	56.2672
1.128	56.4668
1.142	56.339
1.156	56.1903
1.17	55.7201
1.184	54.711
1.198	53.4063
1.212	52.2027
1.226	52.0848
1.24	52.6431
1.254	52.7965
1.268	53.094
1.282	53.8265
1.296	54.4573
1.31	54.5203
1.324	54.2994
1.338	52.8704
1.352	51.5016
1.366	51.6036
1.38	51.3363
1.394	50.3764
1.408	50.0631
1.422	48.7474
1.436	46.0486
1.45	41.6966
1.464	36.6335
1.478	32.223
1.492	31.9903
1.506	34.472
1.52	34.1188
1.534	35.0402
1.548	35.8715
1.562	36.524
1.576	36.2689
1.59	35.9913
1.604	35.4535
1.618	35.5268
1.632	36.5209
1.646	37.3431
1.66	38.3497
1.674	39.3038
1.688	39.6209
1.702	39.4571
1.716	40.1672
1.73	41.1958
1.744	41.7176
1.758	40.7834
1.772	40.0881
1.786	39.511
1.8	40.2829
1.814	41.9068
1.828	42.8239
1.842	43.2025
1.856	41.8064
1.87	40.017
1.884	37.3398
1.898	33.7267
1.912	29.4237
1.926	24.6346
1.94	19.2813
1.954	18.3322
1.968	20.5498
1.982	17.5629
1.996	18.1957
2.01	19.6008
2.024	19.0674
2.038	18.6901
2.052	20.6547
2.066	22.4102
2.08	23.004
2.094	24.1365
2.108	25.6873
2.122	27.1534
2.136	28.2724
2.15	28.2938
2.164	27.6071
2.178	27.4197
2.192	27.443
2.206	26.8084
2.22	26.4266
2.234	26.1051
2.248	23.9122
2.262	26.1072
2.276	28.5468
2.29	29.0644
2.304	28.8964
2.318	27.9846
2.332	26.3662
2.346	24.0306
2.36	20.5744
2.374	16.491
2.388	14.5041
2.402	16.0858
2.416	17.2113
2.43	16.7177
2.444	15.3181
2.458	14.5281
2.472	14.9413
2.486	15.7801
2.5	15.6663
2.509	15.9444
2.517	16.7993
2.526	17.4482
2.535	17.8602
2.543	18.1177
2.552	18.3855
2.561	18.7666
2.57	19.0344
2.579	19.055
2.588	18.8593
2.597	19.4155
2.606	19.4567
2.615	19.0138
2.624	18.952
2.634	18.9108
2.643	19.0653
2.653	19.1065
2.662	19.0962
2.672	18.5709
2.681	17.9529
2.691	16.7478
2.701	15.3573
2.711	13.5033
2.721	12.1128
2.731	11.2064
2.741	10.0013
2.751	9.1052
2.761	8.0237
2.772	7.1997
2.782	6.0049
2.793	4.8307
2.803	4.1921
2.814	3.2033
2.825	2.987
2.835	2.4308
2.846	2.1527
2.857	1.7098
2.868	1.7407
2.879	1.5244
2.891	1.4626
2.902	1.7613
2.913	1.8643
2.925	1.7922
2.937	1.8437
2.948	1.8952
2.96	1.6068
2.972	1.6583
2.984	1.8334
2.996	1.8334
3.008	1.5759
3.02	1.7304
3.033	1.545
3.045	1.8128
3.058	2.0085
3.07	2.2866
3.083	2.5029
3.096	2.9046
3.109	2.987
3.122	3.1106
3.135	3.1621
3.149	3.193
3.162	3.5741
3.176	3.7904
3.189	4.2127
3.203	4.6556
3.217	5.0573
3.231	5.3766
3.245	5.7165
3.259	6.1079
3.274	6.3036
3.288	6.6126
3.303	7.0349
3.318	7.5911
3.333	8.4151
3.348	8.9919
3.363	9.7438
3.378	10.2588
3.394	10.8459
3.409	11.1652
3.425	11.5978
3.441	12.051
3.457	12.6072
3.473	13.2046
3.49	13.5548
3.506	14.0698
3.523	14.3273
3.54	14.8629
3.557	15.3676
3.574	15.8002
3.591	16.3255
3.609	16.9023
3.626	17.3143
3.644	17.6233
3.662	17.7263
3.68	17.7675
3.699	17.9117
3.717	17.922
3.736	17.9014
3.755	17.819
3.774	17.819
3.794	17.6954
3.813	17.407
3.833	17.0671
3.853	16.6036
3.873	16.274
3.893	15.7899
3.914	15.2646
3.935	14.4303
3.956	13.8123
3.977	12.9677
3.998	11.5875
4.02	10.1764
4.042	8.7138
4.064	8.2709
4.086	8.6211
4.109	9.6511
4.132	10.4133
4.155	10.4854
4.179	9.9189
4.202	9.3936
4.226	9.2391
4.251	8.755
4.275	8.4048
4.3	7.8486
4.325	7.7559
4.35	7.5396
4.376	7.7765
4.402	7.5602
4.428	6.9731
4.455	6.4787
4.482	6.4169
4.509	6.1594
4.537	5.9946
4.565	6.0255
4.593	5.768
4.622	5.4281
4.651	5.2118
4.68	5.665
4.71	5.7371
4.74	6.5817
4.771	6.9731
4.802	7.107
4.833	7.1688
4.865	7.0967
4.897	10.094
4.929	10.8871
4.962	12.0098
4.996	12.2364
5.03	11.6802
5.064	8.1164
5.099	11.7317
5.134	12.4218
5.17	12.6587
5.206	12.7617
5.243	12.8029
5.281	12.6999
5.319	12.5454
5.357	12.2879
5.396	11.9274
5.436	11.5875
5.476	11.3918
5.517	11.1858
5.558	11.0725
5.6	10.7017
5.643	10.2794
5.686	9.7026
5.73	9.064
5.775	8.3533
5.82	7.519
5.866	6.4272
5.913	5.0676
5.96	3.6668
6.009	2.4823
6.058	1.6377
6.108	1.5244
6.159	1.9467
6.21	2.5132
6.263	3.0282
6.316	3.4093
6.37	3.6359
6.426	3.7698
6.482	3.8007
6.539	3.6668
6.597	3.502
6.657	3.3475
6.717	3.1209
6.778	2.9252
6.841	2.6574
6.905	2.4411
6.97	2.1424
7.036	1.9158
7.103	1.6892
7.172	1.5141
7.242	1.3802
7.314	1.1227
7.387	0.9682
7.461	0.8652
7.537	0.6798
7.614	0.5665
7.694	0.5768
7.774	0.5253
7.857	0.5562
7.941	1.2669
8.027	3.4711
8.115	5.6959
8.205	5.1397
8.297	5.459
8.391	7.8692
8.487	10.0631
8.585	9.7541
8.686	7.4469
8.789	4.4599
8.894	2.9355
9.002	6.8907
9.113	7.6117
9.226	6.18
9.343	4.2539
9.462	4.3672
9.585	4.6144
9.71	4.7483
9.839	3.7904
9.972	3.7286
10.108	3.3372
10.247	4.8719
10.391	5.3148
10.539	5.7886
10.691	5.9122
10.848	5.9328
11.009	5.5311
11.175	4.9543
11.346	4.5011
11.522	4.0479
11.704	3.5123
11.892	3.0591
12.086	2.5132
12.287	1.957
12.494	1.4626
12.708	1.236
12.93	1.4317
13.16	1.854
13.398	2.0703
13.644	2.1527
13.9	2.266
