Name: Limestone CaCO3
Type: Rock
Class: Sedimentary
Subclass: Limestone
Particle Size: Whole rock chips
Sample No.: ro350b
Owner: Larry Rowan, USGS
Origin: Ronda, Spain
Description: gray limestone
Measurement: Reflectance
X Units: Wavelength (micrometers)
Y Units: Reflectance (percent)
wavelength	value
0.4	36.1167
0.408	36.3333
0.416	36.35
0.424	36.45
0.432	36.6333
0.44	36.7333
0.448	36.7333
0.456	36.8
0.464	36.7333
0.472	36.7667
0.48	36.8167
0.488	36.7333
0.496	37.0667
0.504	37.2
0.512	37.1167
0.52	37.2667
0.528	37.4167
0.536	37.6
0.544	37.75
0.552	37.8
0.56	37.9
0.568	38
0.576	38.2
0.584	38.3333
0.592	38.2
0.6	38.3333
0.608	38.3
0.616	38.25
0.624	38.1667
0.632	38.2167
0.64	38.2333
0.648	38.1833
0.656	38.35
0.664	38.2667
0.672	38.25
0.68	38.3
0.688	38.4
0.696	38.4
0.704	38.55
0.712	38.55
0.72	38.7167
0.728	38.7167
0.736	38.6667
0.744	38.8833
0.752	38.8333
0.76	38.6333
0.768	38.65
0.776	38.7833
0.784	38.7
0.792	38.75
0.8	39.3833
0.832	39.3667
0.864	39.6167
0.896	39.8667
0.928	40.0667
0.96	39.9833
0.992	39.9167
1.024	39.6
1.056	39.4667
1.088	39.4667
1.12	39.5167
1.152	39.55
1.184	39.5
1.216	39.15
1.248	38.8667
1.28	39.25
1.312	39.15
1.344	38.8833
1.376	38.0167
1.408	37.5
1.44	37.55
1.472	37.2667
1.504	37.7
1.536	37.8667
1.568	37.9
1.6	37.8
1.632	37.6667
1.664	37.4667
1.696	37.2333
1.728	37.1333
1.76	37.1167
1.792	36.9167
1.824	36.15
1.856	35.4
1.888	34.0667
1.92	32.6
1.952	32.4833
1.984	32.9833
2.016	34.3333
2.048	34.5833
2.08	34.7
2.102	32.6783
2.109	33.0467
2.116	32.4
2.123	32.215
2.13	32.2933
2.137	31.6517
2.144	31.4617
2.151	30.7717
2.158	30.705
2.165	30.8983
2.173	31.18
2.18	31.1817
2.187	31.39
2.195	31.1233
2.202	30.8383
2.21	30.6033
2.217	30.42
2.225	30.2417
2.232	29.8267
2.24	29.2383
2.248	28.6617
2.256	27.87
2.264	27.0433
2.272	25.9067
2.28	24.9717
2.288	23.7417
2.296	22.9617
2.304	22.4783
2.312	21.885
2.32	21.46
2.329	20.4033
2.337	19.6533
2.346	19.8767
2.354	21.4933
2.363	24.085
2.371	26.11
2.38	27.1983
2.389	27.4167
2.398	27.5167
2.406	27.2533
2.415	27.0233
2.424	26.3967
2.434	25.3
2.443	24.4583
2.452	23.2417
2.461	21.84
2.471	20.2417
2.48	18.8733
2.49	18.15
2.499	17.725
2.509	17.4367
2.519	16.6083
2.528	15.495
2.538	15.17
2.548	16.815
2.558	19.77
2.569	22.1183
2.579	23.13
2.589	24.1333
2.599	24.9433
2.61	25.355
2.62	25.47
2.631	25.4017
2.642	25.065
2.653	24.7917
2.664	23.9983
2.675	23.0017
2.686	20.5183
2.697	16.6533
2.708	15.1733
2.719	12.8617
2.731	12.685
2.742	11.915
2.754	11.2433
2.766	10.5283
2.778	9.8467
2.79	9.52
2.802	9.6533
2.814	9.665
2.826	9.595
2.838	9.445
2.851	9.25
2.864	9.0583
2.876	8.8717
2.889	8.7783
2.902	8.59
2.915	8.49
2.928	8.455
2.942	8.3833
2.955	8.2967
2.968	8.3833
2.982	8.3167
2.996	8.4033
3.01	8.3817
3.024	8.4667
3.038	8.3533
3.052	8.4183
3.067	8.4183
3.081	8.4617
3.096	8.3467
3.111	8.39
3.126	8.665
3.141	8.74
3.156	8.8883
3.172	9.3133
3.187	9.5783
3.203	9.6367
3.219	9.6783
3.235	9.5967
3.251	9.5417
3.268	9.3917
3.284	9.205
3.301	8.8083
3.318	8.2667
3.335	6.995
3.352	5.7867
3.37	5.985
3.387	5.9517
3.405	5.92
3.423	5.9167
3.441	6.0183
3.46	5.8617
3.478	5.3233
3.497	5.69
3.516	6.3383
3.535	7.8083
3.554	8.7367
3.574	8.9917
3.594	10.1867
3.614	10.7433
3.634	11.1083
3.655	11.3383
3.675	11.465
3.696	11.3767
3.717	11.15
3.739	10.6183
3.761	10.1417
3.782	9.1667
3.805	7.3567
3.827	6.4283
3.85	6.03
3.873	5.9183
3.896	5.815
3.92	5.6617
3.944	5.0867
3.968	4.4517
3.992	4.8017
4.017	5.9117
4.042	6.98
4.067	7.8667
4.093	8.4983
4.119	8.985
4.145	9.5767
4.172	9.9083
4.199	10.1817
4.226	10.3283
4.254	10.3783
4.282	10.4817
4.311	10.1717
4.34	10.1583
4.369	10.5283
4.398	10.3617
4.428	9.9133
4.459	9.3033
4.49	8.62
4.521	8.3917
4.553	8.2633
4.585	8.1
4.618	7.595
4.651	6.6067
4.684	6.5033
4.719	7.6617
4.753	8.5183
4.788	8.7467
4.824	8.675
4.86	8.4983
4.897	8.3483
4.934	8.19
4.972	8.1383
5.01	8.06
5.049	7.9667
5.089	6.73
5.129	7.435
5.17	7.1817
5.212	6.8583
5.254	6.495
5.297	6.07
5.341	5.5483
5.385	5.0483
5.43	4.48
5.476	3.8683
5.523	3.1233
5.57	2.4183
5.618	3.18
5.667	2.9933
5.717	2.69
5.768	2.5333
5.82	2.4667
5.873	2.33
5.926	2.1233
5.981	1.8983
6.037	1.8067
6.094	1.75
6.151	1.9083
6.21	2.4417
6.27	3.67
6.332	6.835
6.394	15.3817
6.458	29.5633
6.523	29.815
6.589	27.0633
6.657	24.1617
6.726	21.565
6.796	19.5233
6.868	18.1517
6.942	17.0767
7.017	16.945
7.094	15.6983
7.172	11.7333
7.252	9.795
7.334	9.2633
7.418	8.875
7.504	8.53
7.592	8.155
7.682	8.2283
7.774	8.0517
7.869	7.84
7.965	7.7233
8.064	7.4017
8.166	7.4083
8.27	7.1633
8.377	6.7433
8.487	6.4233
8.599	6.32
8.715	6.8883
8.834	7.2133
8.956	7.2267
9.081	7.1417
9.21	6.5683
9.343	6.8867
9.479	6.8583
9.62	6.6833
9.765	6.2333
9.914	5.7933
10.068	5.7383
10.227	5.9717
10.391	6.1383
10.56	5.8633
10.735	6.0733
10.916	6.8733
11.103	7.6367
11.297	15.505
11.497	7.0017
11.704	5.765
11.92	5.6633
12.143	5.4067
12.375	5.0667
12.616	4.765
12.866	4.6
13.126	4.6183
13.398	4.5167
13.68	3.71
13.975	3.3917
