Name: Syngenite K2Ca(SO4)2 * H2O
Type: Mineral
Class: Sulfate
Subclass: None
Particle Size: Unsieved coarse powder
Sample No.: None
Owner: USGS
Origin: Evaporation of K2SO4 + CaSO4 solution at room temp.
Description: Synthetic Syngenite
Measurement: Directional Hemispherical Reflectance
X Units: Wavelength (micrometers)
Y Units: Reflectance (percent)
wavelength	value
0.4	62.1468
0.414	61.8969
0.428	61.7359
0.442	61.626
0.456	61.5765
0.47	61.469
0.484	61.4474
0.498	61.5694
0.512	61.4433
0.526	61.409
0.54	61.3905
0.554	61.3939
0.568	61.4156
0.582	61.3749
0.596	61.3824
0.61	61.381
0.624	61.3336
0.638	61.2846
0.652	61.2833
0.666	61.2603
0.68	61.148
0.694	61.1086
0.708	61.0839
0.722	61.0218
0.736	61.0275
0.75	60.9672
0.764	60.9302
0.778	60.8276
0.792	60.7758
0.806	60.7404
0.82	60.7116
0.834	60.672
0.848	60.6528
0.862	60.4312
0.876	60.8292
0.89	61.0905
0.904	61.0104
0.918	61.2431
0.932	61.3957
0.946	61.6422
0.96	61.6868
0.974	61.9199
0.988	62.0624
1.002	62.2169
1.016	62.253
1.03	62.2566
1.044	62.5054
1.058	62.4431
1.072	62.6597
1.086	62.6383
1.1	62.7461
1.114	62.7086
1.128	62.9104
1.142	63.0495
1.156	63.1433
1.17	63.015
1.184	63.1868
1.198	63.1666
1.212	63.379
1.226	63.2312
1.24	63.0497
1.254	63.2097
1.268	63.2263
1.282	63.1408
1.296	63.3171
1.31	63.4903
1.324	63.7141
1.338	63.5366
1.352	63.5508
1.366	63.5826
1.38	63.5622
1.394	63.6508
1.408	63.4936
1.422	63.3195
1.436	63.1528
1.45	63.204
1.464	63.0405
1.478	62.4679
1.492	61.664
1.506	60.6855
1.52	60.9929
1.534	60.5969
1.548	60.1467
1.562	59.7467
1.576	59.6675
1.59	59.5974
1.604	59.7808
1.618	60.4335
1.632	60.8194
1.646	61.4144
1.66	61.7853
1.674	62.2915
1.688	62.5646
1.702	63.0726
1.716	63.4601
1.73	63.6222
1.744	63.568
1.758	63.5115
1.772	63.0295
1.786	62.8708
1.8	63.2979
1.814	63.5883
1.828	63.7022
1.842	63.6873
1.856	63.6591
1.87	63.5921
1.884	63.1227
1.898	61.7812
1.912	59.5
1.926	57.2185
1.94	55.0604
1.954	51.3132
1.968	46.517
1.982	41.2763
1.996	37.6309
2.01	42.3538
2.024	49.8317
2.038	53.2122
2.052	52.7031
2.066	49.4627
2.08	45.4619
2.094	45.7638
2.108	51.9473
2.122	55.8887
2.136	59.5701
2.15	60.6085
2.164	59.9719
2.178	58.0063
2.192	56.5594
2.206	57.4083
2.22	59.6454
2.234	60.7035
2.248	61.6392
2.262	62.4246
2.276	62.6893
2.29	62.8489
2.304	62.6864
2.318	62.2397
2.332	61.4214
2.346	61.6504
2.36	62.2294
2.374	62.518
2.388	62.013
2.402	60.5476
2.416	56.8521
2.43	53.1284
2.444	56.9755
2.458	59.405
2.472	58.6594
2.486	56.7402
2.5	54.7548
2.509	52.8596
2.517	50.5627
2.526	49.2031
2.535	49.9035
2.543	51.603
2.552	53.3334
2.561	55.517
2.57	56.7633
2.579	57.6388
2.588	59.1117
2.597	59.6267
2.606	60.3683
2.615	60.0696
2.624	59.1632
2.634	58.916
2.643	57.8654
2.653	57.268
2.662	56.3513
2.672	55.3625
2.681	52.942
2.691	50.5215
2.701	47.4727
2.711	44.6917
2.721	40.7571
2.731	35.8749
2.741	32.8776
2.751	28.9224
2.761	25.3483
2.772	22.4334
2.782	20.1262
2.793	17.9117
2.803	15.7693
2.814	13.1634
2.825	11.1858
2.835	9.6305
2.846	8.4048
2.857	7.4675
2.868	6.7362
2.879	5.768
2.891	5.2015
2.902	4.2848
2.913	3.811
2.925	3.2548
2.937	2.9767
2.948	2.6574
2.96	2.6162
2.972	2.5853
2.984	2.678
2.996	2.5029
3.008	2.6265
3.02	2.6162
3.033	2.8119
3.045	2.987
3.058	3.3166
3.07	3.605
3.083	3.8831
3.096	4.4599
3.109	4.9852
3.122	5.5208
3.135	6.0976
3.149	6.6744
3.162	7.3954
3.176	8.1061
3.189	8.7447
3.203	9.3421
3.217	9.8983
3.231	10.1455
3.245	10.5884
3.259	11.1446
3.274	11.9995
3.288	13.4312
3.303	15.0895
3.318	16.7787
3.333	18.5297
3.348	20.2292
3.363	21.8772
3.378	23.2883
3.394	24.9157
3.409	25.7397
3.425	26.8315
3.441	28.943
3.457	30.0966
3.473	30.6425
3.49	32.0227
3.506	32.2596
3.523	34.7007
3.54	36.05
3.557	37.7186
3.574	39.4696
3.591	40.3039
3.609	40.7365
3.626	42.2506
3.644	43.9089
3.662	45.1655
3.68	45.5878
3.699	45.6805
3.717	46.35
3.736	47.3491
3.755	47.689
3.774	48.1113
3.794	48.3688
3.813	48.5233
3.833	48.1113
3.853	46.1234
3.873	43.8574
3.893	46.6075
3.914	46.9989
3.935	46.0822
3.956	45.423
3.977	46.2676
3.998	46.3294
4.02	46.0925
4.042	44.8874
4.064	43.0231
4.086	42.0652
4.109	40.0258
4.132	37.3993
4.155	34.6286
4.179	31.5386
4.202	28.9842
4.226	27.3568
4.251	22.8145
4.275	19.1271
4.3	16.0577
4.325	13.5239
4.35	11.6905
4.376	10.1558
4.402	8.8271
4.428	9.4657
4.455	11.7317
4.482	12.5351
4.509	12.9883
4.537	12.6175
4.565	13.7402
4.593	14.1831
4.622	12.669
4.651	11.8862
4.68	11.3918
4.71	9.9498
4.74	9.888
4.771	10.2897
4.802	11.4536
4.833	11.9686
4.865	14.7084
4.897	18.2207
4.929	21.1253
4.962	23.1647
4.996	25.1217
5.03	28.2117
5.064	30.2305
5.099	29.0769
5.134	34.8037
5.17	36.9976
5.206	39.0267
5.243	39.7786
5.281	39.964
5.319	39.9125
5.357	39.8713
5.396	39.8198
5.436	40.0464
5.476	39.6138
5.517	37.0903
5.558	29.7773
5.6	24.2668
5.643	26.2238
5.686	25.2453
5.73	24.1844
5.775	21.1459
5.82	18.128
5.866	15.9856
5.913	8.3636
5.96	6.2624
6.009	10.0631
6.058	12.5866
6.108	12.7514
6.159	10.4957
6.21	8.7241
6.263	8.7241
6.316	9.5172
6.37	9.6923
6.426	8.4769
6.482	8.9301
6.539	10.0631
6.597	10.5781
6.657	9.8983
6.717	9.0125
6.778	7.3645
6.841	6.2624
6.905	5.9328
6.97	6.8598
7.036	8.1061
7.103	8.5593
7.172	8.3533
7.242	7.6941
7.314	7.2615
7.387	6.3139
7.461	5.5929
7.537	4.8513
7.614	3.8522
7.694	2.7089
7.774	1.8437
7.857	1.1124
7.941	0.7313
8.027	0.7725
8.115	1.854
8.205	4.9543
8.297	4.4599
8.391	8.24
8.487	13.9359
8.585	21.5373
8.686	25.6264
8.789	22.1965
8.894	23.5149
9.002	18.4679
9.113	14.7702
9.226	10.9489
9.343	11.3815
9.462	12.566
9.585	13.1016
9.71	13.6578
9.839	14.3994
9.972	11.0519
10.108	13.3179
10.247	14.9968
10.391	15.9341
10.539	16.2534
10.691	15.9032
10.848	16.3152
11.009	16.3873
11.175	16.0268
11.346	15.1204
11.522	14.0904
11.704	13.6166
11.892	12.5454
12.086	11.0004
12.287	8.9816
12.494	7.5087
12.708	6.0564
12.93	4.5732
13.16	3.7801
13.398	4.7174
13.644	5.665
13.9	5.8607
