Name: Basalt
Type: Rock
Class: Igneous
Subclass: Mafic
Particle Size: Whole rock chips
Sample No.: Me5
Owner: Lawrence Rowan, USGS Reston
Origin: Gilat, Middle East
Description: Basalt, weathered, smooth surface
Measurement: Directional Hemispherical Reflectance
X Units: Wavelength (micrometers)
Y Units: Reflectance (percent)
wavelength	value
14.051	2.4823
13.826	2.8531
13.609	2.8222
13.398	2.9149
13.193	3.0076
12.995	3.0282
12.802	3.1209
12.616	3.2548
12.434	3.3784
12.258	3.5947
12.086	3.9552
11.92	4.2848
11.757	4.7483
11.6	5.1191
11.446	5.6238
11.297	5.9328
11.151	6.2727
11.009	6.592
10.87	6.7877
10.735	6.9113
10.604	7.0246
10.475	7.1173
10.35	7.4572
10.227	7.9104
10.108	8.4151
9.991	9.1773
9.877	9.7541
9.765	10.2485
9.656	10.7841
9.549	10.6708
9.445	10.0631
9.343	9.0022
9.243	7.931
9.145	7.416
9.049	7.1173
8.956	7.0143
8.864	6.4375
8.774	5.6753
8.686	5.2736
8.599	4.9028
8.515	4.7071
8.431	4.3878
8.35	4.1303
8.27	3.4299
8.192	2.6574
8.115	1.9879
8.039	1.854
7.965	1.6892
7.893	1.6274
7.821	1.6686
7.751	1.7201
7.682	1.8334
7.614	1.7819
7.548	1.8231
7.483	1.957
7.418	1.9879
7.355	2.0909
7.293	2.1321
7.232	2.1836
7.172	2.1424
7.113	2.3175
7.055	2.3072
6.998	2.3278
6.942	2.3278
6.886	2.3072
6.832	2.3175
6.778	2.3278
6.726	2.3999
6.674	2.2763
6.623	2.4514
6.572	2.4823
6.523	2.5132
6.474	2.5235
6.426	2.4514
6.378	2.4411
6.332	2.2763
6.286	2.2454
6.24	2.1836
6.195	2.0291
6.151	2.0497
6.108	2.0085
6.065	2.1218
6.023	2.1836
5.981	2.1733
5.94	2.266
5.899	2.4411
5.859	2.5956
5.82	2.6574
5.781	2.8222
5.743	2.9355
5.705	3.0282
5.667	3.0694
5.63	3.1312
5.594	3.2136
5.558	3.1621
5.523	3.3372
5.487	3.4505
5.453	3.5123
5.419	3.605
5.385	3.7389
5.352	3.7595
5.319	3.7904
5.286	3.9552
5.254	4.0376
5.222	4.1509
5.191	4.3672
5.16	4.429
5.129	4.4702
5.099	4.5938
5.069	4.7483
5.04	4.8101
5.01	4.9646
4.981	5.0573
4.953	5.15
4.925	5.2839
4.897	5.3663
4.869	5.5414
4.842	5.6238
4.815	5.6959
4.788	5.8195
4.762	5.8813
4.736	5.9843
4.71	6.1182
4.684	6.1079
4.659	6.3242
4.634	6.4993
4.61	6.6332
4.585	6.8598
4.561	7.0143
4.537	7.1482
4.513	7.3542
4.49	7.5293
4.467	7.5808
4.444	7.7353
4.421	7.9104
4.398	8.0546
4.376	8.1885
4.354	8.3533
4.332	8.5078
4.311	8.5593
4.289	8.7344
4.268	8.7344
4.247	8.961
4.226	9.1258
4.206	9.2391
4.185	9.2391
4.165	9.3833
4.145	9.4657
4.126	9.4863
4.106	9.5893
4.086	9.7644
4.067	9.6614
4.048	9.5378
4.029	9.5378
4.011	9.4863
3.992	9.3112
3.974	9.2288
3.956	9.3627
3.938	9.4348
3.92	9.7026
3.902	9.5687
3.884	9.6717
3.867	9.7335
3.85	9.6408
3.833	9.5893
3.816	9.785
3.799	9.7644
3.782	9.9189
3.766	9.8674
3.75	9.8056
3.733	9.6923
3.717	9.6923
3.702	9.6717
3.686	9.476
3.67	9.4554
3.655	9.4451
3.639	9.2391
3.624	9.2906
3.609	9.1258
3.594	8.858
3.579	8.858
3.564	8.7035
3.549	8.549
3.535	8.2915
3.521	7.8486
3.506	6.9628
3.492	7.1379
3.478	7.0761
3.464	7.0555
3.45	7.0761
3.437	6.7465
3.423	6.18
3.409	6.18
3.396	6.4272
3.383	6.5508
3.37	6.3139
3.357	6.6641
3.344	6.6229
3.331	6.6023
3.318	6.592
3.305	6.7053
3.293	6.4993
3.28	6.4272
3.268	6.4169
3.255	6.2006
3.243	6.1182
3.231	6.1079
3.219	5.8813
3.207	5.9019
3.195	5.6753
3.183	5.665
3.172	5.4075
3.16	5.4384
3.149	5.4178
3.137	5.2736
3.126	5.2015
3.115	5.15
3.103	5.0367
3.092	4.8101
3.081	4.8204
3.07	4.8616
3.06	4.8101
3.049	4.6659
3.038	4.8101
3.027	4.8101
3.017	4.6762
3.006	4.5732
2.996	4.5526
2.986	4.4187
2.975	4.4702
2.965	4.4702
2.955	4.4805
2.945	4.5114
2.935	4.2642
2.925	4.326
2.915	4.3981
2.905	4.2333
2.896	4.4908
2.886	4.5629
2.876	4.4599
2.867	4.6556
2.857	4.7277
2.848	4.3054
2.838	4.4393
2.829	4.1715
2.82	4.7895
2.811	4.7174
2.802	4.2951
2.793	4.4599
2.784	4.532
2.775	4.2745
2.766	4.6865
2.757	4.4187
2.748	4.6968
2.74	4.9749
2.731	5.871
2.722	6.1491
2.714	6.7568
2.705	8.034
2.697	9.6614
2.688	11.6493
2.68	12.4424
2.672	13.0295
2.664	13.4621
2.655	13.8947
2.647	14.008
2.639	14.0595
2.631	14.2964
2.623	14.0801
2.615	14.1522
2.607	14.1007
2.599	14.1007
2.592	14.4303
2.584	14.0183
2.576	14.1831
2.569	13.9977
2.561	14.1934
2.553	14.2449
2.546	13.905
2.538	14.3685
2.531	13.9977
2.524	14.5127
2.516	14.1316
2.509	14.6569
2.502	14.4303
2.48	15.2918
2.456	14.9823
2.432	14.9399
2.408	15.7672
2.384	15.4223
2.36	15.8031
2.336	16.4027
2.312	16.0295
2.288	16.3249
2.264	16.5143
2.24	16.7314
2.216	17.0998
2.192	17.4283
2.168	17.8711
2.144	18.016
2.12	18.0513
2.096	17.9658
2.072	18.2656
2.048	18.395
2.024	18.5313
2	18.5837
1.976	18.5754
1.952	18.4802
1.928	18.2454
1.904	17.9879
1.88	19.491
1.856	20.0014
1.832	20.1778
1.808	20.3063
1.784	20.5144
1.76	20.5738
1.736	20.6675
1.712	20.7295
1.688	20.7242
1.664	20.4702
1.64	20.2683
1.616	20.1025
1.592	20.0097
1.568	19.8885
1.544	19.7135
1.52	19.5287
1.496	19.3577
1.472	19.1897
1.448	19.0202
1.424	18.7214
1.4	18.7116
1.376	18.7814
1.352	18.6237
1.328	18.5296
1.304	18.5015
1.28	18.4096
1.256	18.2984
1.232	18.2573
1.208	18.2973
1.184	18.1743
1.16	18.1534
1.136	18.0141
1.112	17.7934
1.088	17.6846
1.064	17.6288
1.04	17.6618
1.016	17.7861
0.992	17.9799
0.968	18.3012
0.944	18.84
0.92	19.5161
0.896	19.8679
0.872	20.0448
0.848	17.6537
0.824	19.0867
0.8	19.2627
0.776	19.2242
0.752	19.1918
0.728	19.0355
0.704	18.8006
0.68	18.5027
0.656	18.1922
0.632	17.8655
0.608	17.4851
0.584	16.8808
0.56	15.9303
0.536	14.9484
0.512	14.1376
0.488	13.3874
0.464	12.8771
0.44	12.2287
0.416	11.4897
