Name: Basalt
Type: Rock
Class: Igneous
Subclass: Mafic
Particle Size: Whole rock chips
Sample No.: ba9b1f
Owner: Larry Rowan, USGS
Origin: Wadi Salima, Jordan
Description: fine grained, dark gray basalt
Measurement: Reflectance
X Units: Wavelength (micrometers)
Y Units: Reflectance (percent)
wavelength	value
0.4	11.67
0.408	11.57
0.416	11.57
0.424	11.17
0.432	10.87
0.44	10.47
0.448	10.17
0.456	9.87
0.464	9.77
0.472	9.37
0.48	9.17
0.488	9.07
0.496	8.97
0.504	8.97
0.512	9.07
0.52	9.07
0.528	8.77
0.536	8.97
0.544	8.67
0.552	8.97
0.56	9.07
0.568	8.97
0.576	9.07
0.584	9.07
0.592	9.07
0.6	9.07
0.608	9.07
0.616	8.97
0.624	9.07
0.632	9.07
0.64	9.37
0.648	9.17
0.656	9.07
0.664	9.37
0.672	9.17
0.68	9.37
0.688	9.47
0.696	9.17
0.704	9.47
0.712	9.47
0.72	9.67
0.728	9.47
0.736	9.67
0.744	9.67
0.752	9.47
0.76	9.87
0.768	9.87
0.776	9.87
0.784	9.87
0.792	9.87
0.8	9.87
0.832	9.87
0.864	9.87
0.896	9.97
0.928	9.97
0.96	9.87
0.992	9.87
1.024	9.87
1.056	9.67
1.088	9.67
1.12	9.67
1.152	9.57
1.184	9.57
1.216	9.37
1.248	9.37
1.28	9.37
1.312	9.37
1.344	9.27
1.376	9.07
1.408	8.87
1.44	8.97
1.472	8.97
1.504	8.87
1.536	8.97
1.568	8.97
1.6	8.87
1.632	8.87
1.664	8.77
1.696	8.77
1.728	8.77
1.76	8.57
1.792	8.57
1.824	8.57
1.856	8.57
1.888	8.27
1.92	7.87
1.952	7.97
1.984	8.27
2.016	8.37
2.048	8.37
2.08	8.37
2.102	8.72
2.109	8.61
2.116	8.66
2.123	8.84
2.13	8.7
2.137	8.73
2.144	8.87
2.151	8.49
2.158	8.77
2.165	8.66
2.173	8.59
2.18	8.6
2.187	8.64
2.195	8.27
2.202	8.24
2.21	8.39
2.217	8.32
2.225	8.63
2.232	8.35
2.24	8.42
2.248	8.59
2.256	8.48
2.264	8.41
2.272	8.56
2.28	8.35
2.288	8.36
2.296	8.46
2.304	8.24
2.312	8.25
2.32	8.34
2.329	8.07
2.337	8.33
2.346	8.33
2.354	8.07
2.363	8.24
2.371	8.37
2.38	7.98
2.389	8.08
2.398	7.92
2.406	8.13
2.415	7.96
2.424	7.98
2.434	7.67
2.443	7.73
2.452	7.76
2.461	7.63
2.471	7.57
2.48	7.52
2.49	7.47
2.499	7.37
2.509	7.36
2.519	7.26
2.528	7.35
2.538	7.35
2.548	7.32
2.558	7.33
2.569	7.13
2.579	7.18
2.589	7.12
2.599	7
2.61	7
2.62	7.14
2.631	6.97
2.642	6.9
2.653	6.76
2.664	6.43
2.675	5.91
2.686	5.04
2.697	3.84
2.708	3.43
2.719	3.47
2.731	3.16
2.742	3.09
2.754	2.78
2.766	2.94
2.778	3.03
2.79	3.16
2.802	2.98
2.814	3.13
2.826	3.03
2.838	3.18
2.851	3.25
2.864	2.98
2.876	3.27
2.889	3.15
2.902	3.08
2.915	3.09
2.928	3.19
2.942	3.2
2.955	3.23
2.968	3.34
2.982	3.3
2.996	3.29
3.01	3.38
3.024	3.39
3.038	3.46
3.052	3.53
3.067	3.44
3.081	3.45
3.096	3.57
3.111	3.5
3.126	3.72
3.141	3.59
3.156	3.73
3.172	3.77
3.187	3.81
3.203	3.94
3.219	3.98
3.235	4.12
3.251	4.23
3.268	4.32
3.284	4.37
3.301	4.48
3.318	4.56
3.335	4.66
3.352	4.67
3.37	4.85
3.387	4.98
3.405	4.97
3.423	5.26
3.441	5.24
3.46	5.33
3.478	5.38
3.497	5.52
3.516	5.59
3.535	5.56
3.554	5.68
3.574	5.75
3.594	5.8
3.614	5.76
3.634	5.92
3.655	5.92
3.675	5.93
3.696	6
3.717	6.04
3.739	6.07
3.761	6.06
3.782	6.06
3.805	6.04
3.827	6.17
3.85	6.15
3.873	6.15
3.896	6.08
3.92	6.13
3.944	6.09
3.968	6.06
3.992	6.02
4.017	6.03
4.042	6.06
4.067	5.92
4.093	5.94
4.119	5.94
4.145	5.89
4.172	5.83
4.199	5.79
4.226	5.69
4.254	5.67
4.282	5.64
4.311	5.55
4.34	5.57
4.369	5.55
4.398	5.44
4.428	5.45
4.459	5.31
4.49	5.24
4.521	5.17
4.553	5.19
4.585	5.05
4.618	4.97
4.651	4.86
4.684	4.83
4.719	4.71
4.753	4.6
4.788	4.58
4.824	4.46
4.86	4.44
4.897	4.31
4.934	4.32
4.972	4.2
5.01	4.18
5.049	4.12
5.089	4.01
5.129	4.05
5.17	4.01
5.212	4
5.254	4.03
5.297	3.96
5.341	3.92
5.385	3.89
5.43	3.8
5.476	3.77
5.523	3.76
5.57	3.68
5.618	3.69
5.667	3.63
5.717	3.51
5.768	3.4
5.82	3.22
5.873	3
5.926	2.8
5.981	2.52
6.037	2.41
6.094	2.34
6.151	2.42
6.21	2.66
6.27	2.86
6.332	2.9
6.394	2.88
6.458	2.93
6.523	2.84
6.589	2.84
6.657	2.79
6.726	2.73
6.796	2.72
6.868	2.76
6.942	2.72
7.017	2.75
7.094	2.66
7.172	2.54
7.252	2.47
7.334	2.47
7.418	2.38
7.504	2.31
7.592	2.22
7.682	2.18
7.774	2.05
7.869	2
7.965	1.94
8.064	1.88
8.166	1.88
8.27	2.01
8.377	2.22
8.487	2.6
8.599	3.36
8.715	4.64
8.834	6.12
8.956	7.7
9.081	9.38
9.21	10.48
9.343	12.17
9.479	12.81
9.62	11.72
9.765	10.09
9.914	9.13
10.068	7.97
10.227	7.35
10.391	6.63
10.56	6.09
10.735	5.82
10.916	6.18
11.103	6.06
11.297	5.85
11.497	5.33
11.704	4.55
11.92	3.93
12.143	3.45
12.375	3.02
12.616	2.73
12.866	2.68
13.126	2.61
13.398	2.61
13.68	2.64
13.975	2.58
