Name: Bloedite Na2Mg(So4)2 * 3H2O
Type: Mineral
Class: Sulfate
Subclass: None
Particle Size: Unsieved coarse powder
Sample No.: GDS147
Owner: USGS
Origin: Soda Lake, California
Description: Bloedite powder from Soda Lake, California
Measurement: Directional Hemispherical Reflectance
X Units: Wavelength (micrometers)
Y Units: Reflectance (percent)
wavelength	value
0.4	31.6578
0.414	32.4032
0.428	33.1571
0.442	33.8701
0.456	34.5073
0.47	35.0189
0.484	35.4466
0.498	35.8357
0.512	36.2593
0.526	36.6497
0.54	36.9665
0.554	37.2562
0.568	37.5634
0.582	37.8233
0.596	38.0228
0.61	38.2323
0.624	38.4092
0.638	38.5742
0.652	38.7257
0.666	38.8311
0.68	39.0126
0.694	39.1277
0.708	39.339
0.722	39.496
0.736	39.682
0.75	39.8844
0.764	40.1134
0.778	40.3542
0.792	40.5738
0.806	40.7851
0.82	41.0296
0.834	41.1857
0.848	41.28
0.862	41
0.876	41.0315
0.89	41.1475
0.904	41.0063
0.918	41.1339
0.932	41.1106
0.946	41.364
0.96	41.3999
0.974	41.3253
0.988	41.0403
1.002	41.0588
1.016	41.1827
1.03	41.5583
1.044	41.7293
1.058	41.8939
1.072	41.9591
1.086	42.1413
1.1	42.2242
1.114	42.3873
1.128	42.3226
1.142	42.4198
1.156	42.1667
1.17	41.4539
1.184	40.4941
1.198	40.5331
1.212	40.4399
1.226	40.563
1.24	40.4797
1.254	40.5493
1.268	40.6492
1.282	40.755
1.296	40.8301
1.31	40.9261
1.324	40.4631
1.338	39.6926
1.352	38.8727
1.366	37.9688
1.38	37.5094
1.394	36.7883
1.408	35.3985
1.422	32.7951
1.436	28.4037
1.45	23.9121
1.464	21.9146
1.478	21.6089
1.492	21.8468
1.506	22.123
1.52	22.4767
1.534	22.7118
1.548	22.6557
1.562	22.7064
1.576	23.0242
1.59	22.6722
1.604	22.1826
1.618	21.6385
1.632	21.3195
1.646	20.8407
1.66	20.5633
1.674	20.1424
1.688	19.9191
1.702	19.9214
1.716	19.9132
1.73	19.918
1.744	20.2628
1.758	20.5887
1.772	20.6063
1.786	20.7005
1.8	20.8103
1.814	21.4669
1.828	22.2259
1.842	22.9267
1.856	23.3492
1.87	23.1265
1.884	21.6878
1.898	19.6205
1.912	16.5228
1.926	13.6046
1.94	11.4205
1.954	10.3505
1.968	10.6386
1.982	10.6557
1.996	11.0395
2.01	11.6685
2.024	12.3252
2.038	13.014
2.052	13.3645
2.066	13.4432
2.08	13.2748
2.094	13.3313
2.108	13.589
2.122	14.497
2.136	15.5467
2.15	16.6778
2.164	17.7713
2.178	18.4034
2.192	18.9919
2.206	19.2009
2.22	19.516
2.234	19.6146
2.248	19.5463
2.262	19.2864
2.276	18.7831
2.29	18.0461
2.304	17.08
2.318	16.0803
2.332	14.8883
2.346	13.4788
2.36	12.0234
2.374	10.8488
2.388	9.8599
2.402	8.7066
2.416	7.5649
2.43	6.7187
2.444	6.529
2.458	6.9097
2.472	7.4194
2.486	7.0516
2.5	7.3954
2.509	7.2306
2.517	7.0555
2.526	6.4478
2.535	6.3757
2.543	6.1697
2.552	6.18
2.561	5.6238
2.57	6.2006
2.579	6.1594
2.588	6.3551
2.597	6.3242
2.606	6.2624
2.615	6.0049
2.624	6.3345
2.634	6.2315
2.643	6.1903
2.653	5.871
2.662	5.7268
2.672	5.5208
2.681	5.2221
2.691	4.8513
2.701	4.429
2.711	4.1612
2.721	3.5741
2.731	2.9355
2.741	2.5338
2.751	1.9673
2.761	1.751
2.772	1.3184
2.782	1.2463
2.793	0.8446
2.803	0.9785
2.814	0.8034
2.825	0.6798
2.835	0.5665
2.846	0.7622
2.857	0.7004
2.868	0.7725
2.879	0.7931
2.891	0.9682
2.902	0.7828
2.913	0.9785
2.925	0.8343
2.937	0.8858
2.948	0.927
2.96	0.9167
2.972	1.0815
2.984	0.9373
2.996	1.03
3.008	1.0918
3.02	0.9579
3.033	1.0609
3.045	1.0403
3.058	1.1124
3.07	1.0506
3.083	1.0815
3.096	1.1536
3.109	1.2772
3.122	1.2772
3.135	1.4523
3.149	1.4317
3.162	1.4935
3.176	1.6377
3.189	1.6892
3.203	1.6068
3.217	1.6377
3.231	1.5553
3.245	1.6274
3.259	1.6171
3.274	1.6274
3.288	1.7201
3.303	1.6171
3.318	1.6068
3.333	1.6171
3.348	1.7407
3.363	1.8025
3.378	1.854
3.394	1.9261
3.409	1.8849
3.425	1.9982
3.441	2.1424
3.457	2.1012
3.473	2.3175
3.49	2.4514
3.506	2.6368
3.523	2.678
3.54	2.884
3.557	2.9561
3.574	3.1724
3.591	3.3372
3.609	3.4299
3.626	3.5844
3.644	3.7492
3.662	3.9449
3.68	4.12
3.699	4.2848
3.717	4.4393
3.736	4.4599
3.755	4.5011
3.774	4.5114
3.794	4.5629
3.813	4.7174
3.833	5.0058
3.853	5.0676
3.873	5.15
3.893	5.253
3.914	5.1603
3.935	5.2118
3.956	5.1397
3.977	5.0882
3.998	5.0779
4.02	4.9646
4.042	4.7895
4.064	4.7071
4.086	4.5938
4.109	4.2848
4.132	4.2745
4.155	4.0067
4.179	3.8522
4.202	3.6668
4.226	3.5638
4.251	3.2651
4.275	3.2754
4.3	3.1621
4.325	3.0694
4.35	3.0694
4.376	3.0076
4.402	3.0282
4.428	2.9973
4.455	2.884
4.482	2.9046
4.509	2.884
4.537	2.8428
4.565	2.6265
4.593	2.6162
4.622	2.6574
4.651	2.6883
4.68	2.678
4.71	2.5853
4.74	2.575
4.771	2.6574
4.802	2.7192
4.833	2.8531
4.865	3.1621
4.897	3.5329
4.929	3.8213
4.962	3.9861
4.996	4.0479
5.03	3.6977
5.064	3.9758
5.099	4.0891
5.134	4.1097
5.17	3.9861
5.206	3.9552
5.243	3.8419
5.281	3.6668
5.319	3.4505
5.357	3.3372
5.396	3.1518
5.436	2.9561
5.476	2.7501
5.517	2.369
5.558	2.0703
5.6	1.8025
5.643	1.6686
5.686	1.6583
5.73	1.5862
5.775	1.5656
5.82	1.4111
5.866	1.0403
5.913	1.0094
5.96	1.1124
6.009	1.2669
6.058	1.3287
6.108	1.4729
6.159	1.4008
6.21	1.2978
6.263	1.3596
6.316	1.2772
6.37	1.339
6.426	1.3802
6.482	1.4626
6.539	1.4832
6.597	1.545
6.657	1.5347
6.717	1.4626
6.778	1.545
6.841	1.4008
6.905	1.4214
6.97	1.339
7.036	1.339
7.103	1.3596
7.172	1.2566
7.242	1.1639
7.314	1.1845
7.387	1.0815
7.461	0.9682
7.537	0.8755
7.614	0.721
7.694	0.6077
7.774	0.4532
7.857	0.3708
7.941	0.3296
8.027	0.3708
8.115	0.4944
8.205	1.9467
8.297	7.6117
8.391	12.1128
8.487	13.1634
8.585	13.9874
8.686	11.8038
8.789	8.2194
8.894	10.5369
9.002	9.6305
9.113	8.3018
9.226	6.0873
9.343	4.5835
9.462	3.7389
9.585	3.3784
9.71	3.0797
9.839	2.8943
9.972	2.3381
10.108	2.7192
10.247	2.6368
10.391	2.5544
10.539	2.266
10.691	2.1527
10.848	1.8128
11.009	1.5965
11.175	1.3905
11.346	1.3081
11.522	1.236
11.704	1.3184
11.892	1.6274
12.086	1.5862
12.287	1.5141
12.494	1.5141
12.708	1.2463
12.93	1.2875
13.16	1.3184
13.398	1.5965
13.644	1.6274
13.9	1.8746
