Name: Chlorite Schist
Type: Rock
Class: Metamorphic
Subclass: Schist
Particle Size: Whole rock chips
Sample No.: AP-961-197
Owner: United States Geological Survey, L. C. Rowan
Origin: Iberian Pyrite Belt, Spain
Description: Chlorite, biotite schist
Measurement: Directional Hemispherical Reflectance
X Units: Wavelength (micrometers)
Y Units: Reflectance (percent)
wavelength	value
14.051	3.5432
13.79	3.8625
13.538	3.8934
13.295	3.7698
13.06	4.2024
12.834	4.5629
12.616	4.4393
12.404	4.5217
12.2	4.4599
12.002	4.841
11.811	5.0779
11.626	5.5414
11.446	5.974
11.272	6.3242
11.103	7.0452
10.939	7.004
10.78	6.9422
10.625	8.0958
10.475	9.6717
10.329	11.6905
10.187	13.7299
10.049	15.7487
9.914	18.4679
9.783	19.8893
9.656	24.9569
9.532	27.1817
9.411	24.4213
9.293	19.1683
9.178	19.8275
9.065	19.2919
8.956	16.9332
8.849	16.8508
8.744	15.5736
8.642	12.4424
8.543	12.5454
8.445	11.6905
8.35	10.3927
8.257	9.4348
8.166	8.6108
8.077	6.592
7.99	5.2942
7.905	4.1818
7.821	3.4917
7.739	3.3887
7.659	3.1621
7.581	2.9973
7.504	2.8531
7.429	2.7192
7.355	2.6059
7.283	2.472
7.212	2.5544
7.143	2.5544
7.074	2.5544
7.007	2.6059
6.942	2.6059
6.877	2.6368
6.814	2.575
6.752	2.575
6.691	2.6677
6.631	2.678
6.572	2.7398
6.514	2.7501
6.458	2.884
6.402	2.9458
6.347	2.8531
6.293	2.8016
6.24	2.6986
6.188	2.6368
6.137	2.6162
6.086	2.6471
6.037	2.5853
5.988	2.6265
5.94	2.6265
5.893	2.8325
5.846	2.9355
5.8	3.1312
5.755	3.2033
5.711	3.2033
5.667	3.1724
5.624	3.2136
5.582	3.1827
5.54	3.2651
5.499	3.399
5.459	3.5226
5.419	3.5947
5.379	3.5123
5.341	3.4196
5.302	3.5844
5.265	3.7698
5.227	4.0788
5.191	4.3569
5.155	4.532
5.119	4.6762
5.084	4.7895
5.049	4.7895
5.015	4.7792
4.981	4.8719
4.948	5.2942
4.915	5.4178
4.883	5.9534
4.851	6.3139
4.819	6.5302
4.788	6.6435
4.758	6.7259
4.727	6.9937
4.697	7.107
4.668	7.2306
4.638	7.5293
4.61	7.8486
4.581	8.137
4.553	8.4357
4.525	8.4563
4.498	8.4666
4.47	8.6417
4.444	8.8889
4.417	9.2288
4.391	9.6923
4.365	9.9601
4.34	10.3206
4.314	10.5781
4.289	10.8047
4.265	11.0622
4.24	11.1961
4.216	11.4742
4.192	11.7626
4.169	11.8244
4.145	12.1746
4.122	12.5557
4.099	12.7823
4.077	13.0913
4.055	13.39
4.032	13.596
4.011	13.8432
3.989	14.2243
3.968	14.3685
3.947	14.7187
3.926	14.9144
3.905	15.1616
3.884	15.3264
3.864	15.2028
3.844	15.3985
3.824	15.3985
3.805	15.4191
3.785	15.4088
3.766	15.0586
3.747	14.8938
3.728	14.7084
3.709	14.5024
3.691	14.3788
3.673	14.2552
3.655	14.0492
3.637	13.8638
3.619	13.7814
3.601	13.2561
3.584	12.9574
3.567	12.7411
3.549	12.3188
3.533	12.0407
3.516	11.7008
3.499	11.433
3.483	11.0519
3.466	10.8047
3.45	10.4236
3.434	10.1043
3.418	9.579
3.403	9.4348
3.387	9.064
3.372	8.8374
3.357	8.6211
3.341	8.2709
3.326	7.9104
3.312	7.828
3.297	7.622
3.282	7.2924
3.268	7.0143
3.253	6.7877
3.239	6.5405
3.225	6.4684
3.211	6.3139
3.197	6.0873
3.183	5.9637
3.17	5.665
3.156	5.4693
3.143	5.5002
3.13	5.5105
3.117	5.2942
3.103	5.1088
3.091	5.0676
3.078	5.0676
3.065	4.9543
3.052	4.9234
3.04	5.1191
3.027	5.0573
3.015	4.841
3.003	4.8616
2.991	4.6556
2.979	4.7998
2.967	4.6247
2.955	4.7277
2.943	4.9337
2.932	4.5732
2.92	4.7792
2.909	4.9131
2.897	4.9131
2.886	4.9131
2.875	4.944
2.864	4.9646
2.853	5.1191
2.842	4.9852
2.831	5.047
2.82	5.1397
2.809	4.6762
2.799	4.0788
2.788	3.9861
2.778	3.7183
2.767	3.7286
2.757	3.4505
2.747	3.7698
2.737	4.1818
2.727	5.1912
2.717	5.768
2.707	6.0564
2.697	7.0246
2.687	10.2279
2.677	12.8132
2.668	14.5848
2.658	15.9444
2.649	16.4285
2.639	16.9538
2.63	17.8602
2.62	17.6748
2.611	18.231
2.602	18.1692
2.593	18.1383
2.584	18.9623
2.575	19.2919
2.566	19.5597
2.557	19.9099
2.548	20.0438
2.54	20.0232
2.531	19.8996
2.522	20.5485
2.514	20.291
2.505	20.4867
2.489	20.603
2.461	20.903
2.433	21.003
2.405	20.703
2.377	19.603
2.349	18.303
2.321	18.203
2.293	19.303
2.265	19.503
2.237	21.403
2.209	25.303
2.181	27.303
2.153	28.103
2.125	28.203
2.097	28.803
2.069	28.403
2.041	27.203
2.013	25.503
1.985	25.403
1.957	25.503
1.929	25.603
1.901	25.703
1.873	26.203
1.845	26.803
1.817	26.703
1.789	26.503
1.761	26.003
1.733	25.603
1.705	24.803
1.677	24.303
1.649	23.503
1.621	22.703
1.593	22.203
1.565	21.603
1.537	21.003
1.509	20.703
1.481	20.503
1.453	20.003
1.425	19.603
1.397	18.903
1.369	19.303
1.341	18.803
1.313	18.503
1.285	18.303
1.257	17.703
1.229	17.803
1.201	17.603
1.173	17.603
1.145	17.603
1.117	17.703
1.089	17.603
1.061	17.803
1.033	17.803
1.005	17.803
0.977	17.903
0.949	17.903
0.921	17.703
0.893	17.603
0.865	17.603
0.837	17.703
0.809	17.903
0.799	17.603
0.792	17.503
0.785	17.603
0.778	17.503
0.771	17.503
0.764	17.503
0.757	17.403
0.75	17.403
0.743	17.303
0.736	17.503
0.729	17.403
0.722	17.303
0.715	17.403
0.708	17.203
0.701	17.203
0.694	17.203
0.687	17.403
0.68	17.403
0.673	17.303
0.666	17.303
0.659	17.303
0.652	17.303
0.645	17.403
0.638	17.303
0.631	17.303
0.624	17.403
0.617	17.503
0.61	17.503
0.603	17.603
0.596	17.503
0.589	17.503
0.582	17.803
0.575	17.803
0.568	17.803
0.561	18.303
0.554	18.303
0.547	18.303
0.54	18.303
0.533	18.403
0.526	18.503
0.519	18.603
0.512	18.703
0.505	19.103
0.498	19.103
0.491	19.503
0.484	19.603
0.477	19.603
0.47	20.003
0.463	20.203
0.456	20.303
0.449	20.703
0.442	20.803
0.435	20.903
0.428	21.303
0.421	21.403
0.414	21.903
0.407	21.903
