Name: Basalt
Type: Rock
Class: Igneous
Subclass: Mafic
Particle Size: Whole rock chips
Sample No.: ba12c1f
Owner: Larry Rowan, USGS
Origin: Wadi Mujib, Jordan
Description: dark gray vesicular basalt
Measurement: Reflectance
X Units: Wavelength (micrometers)
Y Units: Reflectance (percent)
wavelength	value
0.4	13.9
0.408	13.5
0.416	13.9
0.424	13.5
0.432	13.2
0.44	13
0.448	12.9
0.456	12.3
0.464	12.3
0.472	11.9
0.48	11.9
0.488	11.8
0.496	11.6
0.504	11.8
0.512	11.6
0.52	11.5
0.528	11.6
0.536	11.6
0.544	11.6
0.552	11.6
0.56	11.3
0.568	11.5
0.576	11.6
0.584	11.6
0.592	11.6
0.6	11.5
0.608	11.6
0.616	11.3
0.624	11.8
0.632	11.9
0.64	11.9
0.648	11.6
0.656	12
0.664	12
0.672	12
0.68	11.6
0.688	11.9
0.696	11.9
0.704	12.2
0.712	12.2
0.72	12.2
0.728	12.2
0.736	12.3
0.744	12.2
0.752	12.3
0.76	12.4
0.768	12.3
0.776	12.3
0.784	12.2
0.792	12.4
0.8	12.6
0.832	12.5
0.864	12.3
0.896	12.3
0.928	12
0.96	11.7
0.992	11.7
1.024	11.4
1.056	11.4
1.088	11.5
1.12	11.5
1.152	11.5
1.184	11.6
1.216	11.6
1.248	11.5
1.28	11.4
1.312	11.5
1.344	11.7
1.376	11.5
1.408	11.6
1.44	11.7
1.472	11.7
1.504	11.8
1.536	12.1
1.568	12
1.6	12.1
1.632	12.1
1.664	12.1
1.696	12.2
1.728	12.2
1.76	12
1.792	12.1
1.824	12.1
1.856	12
1.888	11.7
1.92	11.4
1.952	11.2
1.984	11.5
2.016	11.6
2.048	11.7
2.08	11.7
2.102	10.42
2.109	10.49
2.116	10.39
2.123	10.32
2.13	10.33
2.137	10.11
2.144	10.3
2.151	10.25
2.158	10.36
2.165	10.27
2.173	10.22
2.18	10.28
2.187	10.12
2.195	10.1
2.202	10.17
2.21	10.1
2.217	10.05
2.225	10.14
2.232	10.16
2.24	10
2.248	10.07
2.256	10.01
2.264	10.09
2.272	9.97
2.28	10.27
2.288	10.06
2.296	10.09
2.304	10.01
2.312	9.98
2.32	9.81
2.329	9.97
2.337	9.94
2.346	9.86
2.354	9.91
2.363	9.73
2.371	9.78
2.38	9.98
2.389	10.05
2.398	9.72
2.406	9.8
2.415	9.84
2.424	9.61
2.434	9.93
2.443	9.84
2.452	9.76
2.461	9.86
2.471	9.91
2.48	9.85
2.49	9.61
2.499	9.76
2.509	9.72
2.519	9.76
2.528	9.63
2.538	9.74
2.548	9.65
2.558	9.85
2.569	9.85
2.579	9.71
2.589	9.72
2.599	9.89
2.61	9.9
2.62	9.91
2.631	9.77
2.642	9.83
2.653	9.67
2.664	9.57
2.675	9.34
2.686	9.2
2.697	8.42
2.708	7.68
2.719	7.33
2.731	6.81
2.742	6.52
2.754	5.83
2.766	5.85
2.778	5.97
2.79	5.78
2.802	5.73
2.814	5.67
2.826	5.86
2.838	5.62
2.851	5.83
2.864	5.74
2.876	5.67
2.889	5.65
2.902	5.72
2.915	5.67
2.928	5.69
2.942	5.71
2.955	5.66
2.968	5.79
2.982	5.77
2.996	5.7
3.01	5.77
3.024	5.78
3.038	5.87
3.052	5.94
3.067	5.92
3.081	5.87
3.096	5.98
3.111	5.97
3.126	6.07
3.141	6.1
3.156	6.21
3.172	6.32
3.187	6.29
3.203	6.53
3.219	6.56
3.235	6.67
3.251	6.71
3.268	6.89
3.284	6.89
3.301	7.03
3.318	7.13
3.335	7.07
3.352	6.98
3.37	7.19
3.387	7.25
3.405	7.36
3.423	7.55
3.441	7.52
3.46	7.43
3.478	7.34
3.497	7.59
3.516	7.68
3.535	8
3.554	8.08
3.574	8.15
3.594	8.31
3.614	8.38
3.634	8.42
3.655	8.4
3.675	8.46
3.696	8.47
3.717	8.45
3.739	8.44
3.761	8.48
3.782	8.49
3.805	8.24
3.827	7.91
3.85	7.82
3.873	7.77
3.896	7.73
3.92	7.62
3.944	7.43
3.968	7.18
3.992	7.27
4.017	7.51
4.042	7.89
4.067	8.08
4.093	8.1
4.119	8.11
4.145	8.03
4.172	8.04
4.199	7.93
4.226	7.49
4.254	7.75
4.282	7.44
4.311	7.54
4.34	7.52
4.369	7.47
4.398	7.31
4.428	7.25
4.459	7.13
4.49	6.96
4.521	6.81
4.553	6.63
4.585	6.52
4.618	6.3
4.651	6.03
4.684	5.97
4.719	5.89
4.753	5.73
4.788	5.66
4.824	5.53
4.86	5.44
4.897	5.31
4.934	5.21
4.972	5.11
5.01	5
5.049	4.85
5.089	4.77
5.129	4.7
5.17	4.6
5.212	4.47
5.254	4.37
5.297	4.29
5.341	4.18
5.385	4.07
5.43	4.04
5.476	3.92
5.523	3.79
5.57	3.54
5.618	3.62
5.667	3.59
5.717	3.52
5.768	3.41
5.82	3.31
5.873	3.22
5.926	3.19
5.981	3.09
6.037	2.91
6.094	2.88
6.151	2.97
6.21	3.07
6.27	3.11
6.332	3.27
6.394	3.62
6.458	4.25
6.523	4.24
6.589	4.14
6.657	3.94
6.726	3.78
6.796	3.67
6.868	3.6
6.942	3.54
7.017	3.46
7.094	3.32
7.172	2.83
7.252	2.62
7.334	2.46
7.418	2.35
7.504	2.26
7.592	2.17
7.682	2.08
7.774	2.01
7.869	2.03
7.965	2.04
8.064	2.4
8.166	3.29
8.27	5.65
8.377	7.43
8.487	7.99
8.599	8.37
8.715	8.58
8.834	9.1
8.956	9.56
9.081	9.26
9.21	9.03
9.343	9.93
9.479	11.1
9.62	11.73
9.765	12
9.914	11.81
10.068	10.94
10.227	10.49
10.391	10.32
10.56	10.01
10.735	9.89
10.916	9.6
11.103	9.06
11.297	8.69
11.497	7.43
11.704	6.32
11.92	5.61
12.143	4.98
12.375	4.21
12.616	4.01
12.866	3.89
13.126	3.8
13.398	3.64
13.68	3.59
13.975	3.32
