Name: Basalt
Type: Rock
Class: Igneous
Subclass: Mafic
Particle Size: Whole rock chips
Sample No.: ba19a1w
Owner: Larry Rowan, USGS
Origin: DANA, Jordan
Description: dark gray basalt
Measurement: Reflectance
X Units: Wavelength (micrometers)
Y Units: Reflectance (percent)
wavelength	value
0.4	12.22
0.408	12.22
0.416	12.32
0.424	12.32
0.432	12.02
0.44	11.82
0.448	11.82
0.456	11.32
0.464	10.52
0.472	10.52
0.48	10.52
0.488	10.42
0.496	10.52
0.504	10.42
0.512	10.62
0.52	10.62
0.528	10.92
0.536	10.62
0.544	10.92
0.552	10.72
0.56	12.02
0.568	11.82
0.576	12.22
0.584	12.12
0.592	12.02
0.6	12.12
0.608	12.12
0.616	12.22
0.624	12.32
0.632	12.42
0.64	12.42
0.648	12.32
0.656	12.32
0.664	12.42
0.672	12.62
0.68	12.42
0.688	12.42
0.696	12.22
0.704	12.22
0.712	12.22
0.72	12.22
0.728	12.02
0.736	12.12
0.744	12.02
0.752	12.12
0.76	12.02
0.768	12.02
0.776	11.72
0.784	11.72
0.792	11.72
0.8	11.52
0.832	11.62
0.864	12.02
0.896	12.52
0.928	12.62
0.96	12.72
0.992	13.02
1.024	13.02
1.056	13.12
1.088	12.92
1.12	12.92
1.152	13.12
1.184	13.02
1.216	12.92
1.248	12.72
1.28	12.52
1.312	12.52
1.344	12.42
1.376	12.12
1.408	12.02
1.44	12.02
1.472	11.92
1.504	11.62
1.536	11.92
1.568	11.62
1.6	11.82
1.632	11.52
1.664	11.42
1.696	11.42
1.728	11.02
1.76	10.92
1.792	10.92
1.824	10.72
1.856	10.72
1.888	10.12
1.92	9.92
1.952	9.82
1.984	10.12
2.016	10.12
2.048	10.12
2.08	10.12
2.102	10.03
2.109	10.17
2.116	10.12
2.123	10.37
2.13	10.35
2.137	9.88
2.144	10.02
2.151	9.94
2.158	10
2.165	10.07
2.173	10.04
2.18	9.81
2.187	9.94
2.195	9.77
2.202	9.92
2.21	9.75
2.217	9.88
2.225	9.86
2.232	9.95
2.24	9.78
2.248	9.92
2.256	9.81
2.264	9.92
2.272	9.86
2.28	9.82
2.288	9.64
2.296	9.59
2.304	9.83
2.312	9.77
2.32	9.42
2.329	9.63
2.337	9.46
2.346	9.39
2.354	9.45
2.363	9.6
2.371	9.57
2.38	9.69
2.389	9.5
2.398	9.39
2.406	9.31
2.415	9.19
2.424	9.18
2.434	9.33
2.443	9.11
2.452	9.29
2.461	9.36
2.471	9.19
2.48	8.93
2.49	9.11
2.499	8.84
2.509	8.88
2.519	8.68
2.528	8.58
2.538	8.6
2.548	8.39
2.558	8.61
2.569	8.27
2.579	8.5
2.589	8.19
2.599	8.76
2.61	8.34
2.62	8.06
2.631	7.92
2.642	8.11
2.653	7.93
2.664	7.33
2.675	7.11
2.686	6.4
2.697	5.23
2.708	4.32
2.719	4.03
2.731	4.32
2.742	3.91
2.754	3.76
2.766	3.74
2.778	3.84
2.79	3.84
2.802	3.51
2.814	3.83
2.826	3.64
2.838	3.78
2.851	3.7
2.864	3.78
2.876	3.75
2.889	3.77
2.902	3.5
2.915	3.75
2.928	3.56
2.942	3.76
2.955	3.68
2.968	3.72
2.982	3.87
2.996	3.95
3.01	3.9
3.024	3.91
3.038	3.89
3.052	4.06
3.067	4.05
3.081	3.98
3.096	4.07
3.111	4.08
3.126	4.07
3.141	4.31
3.156	4.31
3.172	4.39
3.187	4.48
3.203	4.44
3.219	4.64
3.235	4.73
3.251	4.73
3.268	4.8
3.284	4.98
3.301	5.1
3.318	5.05
3.335	5.16
3.352	4.93
3.37	5.05
3.387	5.21
3.405	5.34
3.423	5.43
3.441	5.5
3.46	5.42
3.478	5.33
3.497	5.51
3.516	5.65
3.535	6.09
3.554	6.13
3.574	6.23
3.594	6.35
3.614	6.38
3.634	6.57
3.655	6.59
3.675	6.54
3.696	6.71
3.717	6.62
3.739	6.67
3.761	6.61
3.782	6.74
3.805	6.44
3.827	6.17
3.85	6.08
3.873	5.98
3.896	5.96
3.92	5.94
3.944	5.73
3.968	5.32
3.992	5.43
4.017	5.93
4.042	6.26
4.067	6.43
4.093	6.5
4.119	6.48
4.145	6.57
4.172	6.49
4.199	6.35
4.226	5.84
4.254	6.17
4.282	5.83
4.311	5.99
4.34	6.21
4.369	6.14
4.398	6.1
4.428	6.11
4.459	5.99
4.49	5.96
4.521	5.76
4.553	5.72
4.585	5.61
4.618	5.54
4.651	5.44
4.684	5.34
4.719	5.33
4.753	5.3
4.788	5.17
4.824	5.13
4.86	5.09
4.897	5.04
4.934	4.98
4.972	4.88
5.01	4.84
5.049	4.79
5.089	4.71
5.129	4.67
5.17	4.68
5.212	4.51
5.254	4.59
5.297	4.51
5.341	4.34
5.385	4.29
5.43	4.22
5.476	3.96
5.523	3.79
5.57	3.2
5.618	3.68
5.667	3.59
5.717	3.38
5.768	3.21
5.82	2.96
5.873	2.69
5.926	2.59
5.981	2.4
6.037	2.15
6.094	2.42
6.151	2.46
6.21	3
6.27	3.44
6.332	3.88
6.394	5.16
6.458	6.83
6.523	6.59
6.589	5.9
6.657	5.78
6.726	5.61
6.796	5.42
6.868	5.23
6.942	5.35
7.017	5.5
7.094	5.56
7.172	4.52
7.252	4.08
7.334	4.05
7.418	4.25
7.504	4.26
7.592	4.16
7.682	4.39
7.774	4.37
7.869	4.3
7.965	4.39
8.064	4.27
8.166	4.28
8.27	4.23
8.377	4.16
8.487	4.36
8.599	4.77
8.715	5.58
8.834	6.39
8.956	7.16
9.081	7.77
9.21	8.32
9.343	9.5
9.479	10.02
9.62	9.54
9.765	8.6
9.914	7.88
10.068	7.08
10.227	6.63
10.391	6.1
10.56	5.8
10.735	5.61
10.916	5.79
11.103	5.87
11.297	6.95
11.497	5.6
11.704	4.61
11.92	4.14
12.143	3.71
12.375	3.32
12.616	3.15
12.866	2.96
13.126	2.75
13.398	2.82
13.68	2.64
13.975	2.63
