Name: Basalt
Type: Rock
Class: Igneous
Subclass: Mafic
Particle Size: Whole rock chips
Sample No.: ba4b1w
Owner: Larry Rowan, USGS
Origin: Tel Jeiza, Jordan
Description: medium grained,dark gray basalt
Measurement: Reflectance
X Units: Wavelength (micrometers)
Y Units: Reflectance (percent)
wavelength	value
0.4	11.2
0.408	11.1
0.416	10.8
0.424	10.7
0.432	10.4
0.44	10.2
0.448	10.1
0.456	9.6
0.464	8.7
0.472	8.5
0.48	8.5
0.488	8.5
0.496	8.5
0.504	8.5
0.512	8.5
0.52	8.5
0.528	8.5
0.536	8.2
0.544	8.5
0.552	8.6
0.56	8.9
0.568	8.9
0.576	9
0.584	8.9
0.592	8.9
0.6	8.7
0.608	8.7
0.616	8.9
0.624	9.3
0.632	9
0.64	8.9
0.648	9
0.656	9.1
0.664	9.1
0.672	9.3
0.68	9.1
0.688	9.3
0.696	9
0.704	9
0.712	9.3
0.72	9.1
0.728	9.4
0.736	9.1
0.744	9.3
0.752	9.4
0.76	9.1
0.768	9.1
0.776	9.4
0.784	9.3
0.792	9.4
0.8	9.4
0.832	9.3
0.864	9.5
0.896	9.5
0.928	9.6
0.96	9.4
0.992	9.4
1.024	9.4
1.056	9.4
1.088	9.5
1.12	9.8
1.152	9.8
1.184	9.8
1.216	9.6
1.248	9.8
1.28	9.6
1.312	9.8
1.344	9.9
1.376	9.8
1.408	9.9
1.44	10.1
1.472	10
1.504	10
1.536	10.5
1.568	10.4
1.6	10.5
1.632	10.6
1.664	10.6
1.696	10.7
1.728	10.7
1.76	10.4
1.792	10.6
1.824	10.6
1.856	10.5
1.888	10
1.92	9.8
1.952	9.6
1.984	10
2.016	10
2.048	10.3
2.08	10.3
2.102	10.85
2.109	10.91
2.116	10.76
2.123	10.76
2.13	10.81
2.137	10.6
2.144	10.81
2.151	10.68
2.158	10.44
2.165	10.75
2.173	10.78
2.18	10.45
2.187	10.28
2.195	10.53
2.202	10.49
2.21	10.27
2.217	10.3
2.225	10.37
2.232	10.51
2.24	10.56
2.248	10.55
2.256	10.55
2.264	10.23
2.272	10.38
2.28	10.44
2.288	10.27
2.296	10.27
2.304	10.45
2.312	10.27
2.32	10.25
2.329	10.15
2.337	10.18
2.346	10.23
2.354	10.27
2.363	10.24
2.371	9.96
2.38	10.25
2.389	10.21
2.398	10.12
2.406	10.35
2.415	10.18
2.424	10.08
2.434	10.04
2.443	10.31
2.452	9.96
2.461	9.97
2.471	9.97
2.48	9.85
2.49	10.05
2.499	9.94
2.509	9.79
2.519	9.86
2.528	9.99
2.538	9.78
2.548	9.99
2.558	9.97
2.569	10.11
2.579	9.91
2.589	10.15
2.599	10.08
2.61	10
2.62	10.17
2.631	9.9
2.642	9.63
2.653	9.5
2.664	9.31
2.675	9.16
2.686	8.13
2.697	6.4
2.708	5.75
2.719	5.76
2.731	5.55
2.742	5.5
2.754	5.24
2.766	5.32
2.778	5.18
2.79	5.15
2.802	5.21
2.814	5.21
2.826	5.27
2.838	5.44
2.851	5.33
2.864	5.3
2.876	5.28
2.889	5.37
2.902	5.3
2.915	5.35
2.928	5.36
2.942	5.31
2.955	5.34
2.968	5.31
2.982	5.3
2.996	5.34
3.01	5.38
3.024	5.47
3.038	5.31
3.052	5.51
3.067	5.37
3.081	5.43
3.096	5.5
3.111	5.56
3.126	5.56
3.141	5.58
3.156	5.75
3.172	5.88
3.187	5.81
3.203	5.94
3.219	6
3.235	6.14
3.251	6.16
3.268	6.35
3.284	6.4
3.301	6.47
3.318	6.48
3.335	6.56
3.352	6.61
3.37	6.89
3.387	6.86
3.405	7.06
3.423	7.22
3.441	7.26
3.46	7.43
3.478	7.32
3.497	7.47
3.516	7.59
3.535	7.96
3.554	8.1
3.574	8.22
3.594	8.35
3.614	8.49
3.634	8.58
3.655	8.77
3.675	8.7
3.696	8.77
3.717	8.82
3.739	8.9
3.761	8.89
3.782	8.79
3.805	8.61
3.827	8.33
3.85	8.28
3.873	8.28
3.896	8.2
3.92	8.27
3.944	8.04
3.968	8.03
3.992	8.03
4.017	8.05
4.042	8.11
4.067	8.28
4.093	8.24
4.119	8.23
4.145	8.22
4.172	8.11
4.199	8.07
4.226	7.45
4.254	7.71
4.282	7.31
4.311	7.5
4.34	7.5
4.369	7.49
4.398	7.32
4.428	7.22
4.459	7.08
4.49	6.93
4.521	6.77
4.553	6.58
4.585	6.43
4.618	6.2
4.651	5.96
4.684	5.83
4.719	5.74
4.753	5.6
4.788	5.49
4.824	5.43
4.86	5.33
4.897	5.21
4.934	5.13
4.972	5.03
5.01	4.93
5.049	4.8
5.089	4.71
5.129	4.6
5.17	4.55
5.212	4.47
5.254	4.42
5.297	4.32
5.341	4.24
5.385	4.17
5.43	4.06
5.476	3.96
5.523	3.82
5.57	3.76
5.618	3.74
5.667	3.72
5.717	3.67
5.768	3.6
5.82	3.49
5.873	3.41
5.926	3.3
5.981	3.06
6.037	3.02
6.094	3.01
6.151	2.98
6.21	3.09
6.27	3.26
6.332	3.42
6.394	3.97
6.458	4.91
6.523	5.11
6.589	4.85
6.657	4.66
6.726	4.38
6.796	4.23
6.868	4.1
6.942	3.98
7.017	3.85
7.094	3.59
7.172	3.16
7.252	2.81
7.334	2.63
7.418	2.48
7.504	2.31
7.592	2.17
7.682	1.99
7.774	1.98
7.869	1.82
7.965	1.86
8.064	2
8.166	2.77
8.27	4.92
8.377	6.77
8.487	7.79
8.599	8.79
8.715	9.9
8.834	11.4
8.956	12.89
9.081	13.2
9.21	13.01
9.343	14.18
9.479	15.25
9.62	15.47
9.765	15.35
9.914	15.03
10.068	14.02
10.227	13.55
10.391	13.42
10.56	12.76
10.735	12.58
10.916	12.31
11.103	11.26
11.297	11.07
11.497	9.16
11.704	7.65
11.92	6.62
12.143	5.99
12.375	4.96
12.616	4.6
12.866	4.37
13.126	4.31
13.398	4.27
13.68	4.22
13.975	4.38
