Name: Basalt
Type: Rock
Class: Igneous
Subclass: Mafic
Particle Size: Whole rock chips
Sample No.: ba1d1f
Owner: Larry Rowan, USGS
Origin: Sweimah, Jordan
Description: dark gray basalt
Measurement: Reflectance
X Units: Wavelength (micrometers)
Y Units: Reflectance (percent)
wavelength	value
0.4	10.4
0.408	10.2
0.416	10.1
0.424	10
0.432	9.8
0.44	9.6
0.448	9.6
0.456	9
0.464	9
0.472	8.5
0.48	8.5
0.488	8.5
0.496	8.5
0.504	8.5
0.512	8.2
0.52	8.5
0.528	8.3
0.536	8.5
0.544	8.2
0.552	8.5
0.56	8.6
0.568	8.6
0.576	8.7
0.584	8.6
0.592	8.5
0.6	8.5
0.608	8.6
0.616	8.5
0.624	8.7
0.632	8.7
0.64	8.6
0.648	8.5
0.656	8.5
0.664	8.5
0.672	8.5
0.68	8.5
0.688	8.6
0.696	8.3
0.704	8.5
0.712	8.6
0.72	8.5
0.728	8.7
0.736	8.5
0.744	8.5
0.752	8.7
0.76	8.5
0.768	8.6
0.776	8.7
0.784	8.7
0.792	8.7
0.8	8.7
0.832	8.7
0.864	8.8
0.896	9
0.928	8.8
0.96	8.7
0.992	8.4
1.024	8.3
1.056	8.4
1.088	8.2
1.12	8.1
1.152	7.9
1.184	7.7
1.216	7.7
1.248	7.4
1.28	7.3
1.312	7.2
1.344	7.2
1.376	7
1.408	6.8
1.44	6.7
1.472	6.7
1.504	6.7
1.536	6.7
1.568	6.5
1.6	6.6
1.632	6.3
1.664	6.5
1.696	6.5
1.728	6.5
1.76	6.3
1.792	6.3
1.824	6.3
1.856	6.2
1.888	5.9
1.92	6
1.952	5.9
1.984	5.9
2.016	6
2.048	6
2.08	6.1
2.102	6.61
2.109	6.52
2.116	6.86
2.123	7
2.13	6.7
2.137	6.73
2.144	6.65
2.151	6.76
2.158	6.71
2.165	6.68
2.173	6.59
2.18	6.64
2.187	6.53
2.195	6.66
2.202	6.57
2.21	6.59
2.217	6.58
2.225	6.56
2.232	6.38
2.24	6.56
2.248	6.59
2.256	6.72
2.264	6.49
2.272	6.3
2.28	6.28
2.288	6.43
2.296	6.2
2.304	6.4
2.312	6.39
2.32	6.24
2.329	6.42
2.337	6.18
2.346	6.3
2.354	6.33
2.363	6.3
2.371	6.23
2.38	6.24
2.389	6.38
2.398	6.28
2.406	6.01
2.415	6.27
2.424	6
2.434	6.11
2.443	6.24
2.452	6.03
2.461	6.07
2.471	6.05
2.48	6.08
2.49	6.18
2.499	5.98
2.509	6
2.519	6.08
2.528	5.77
2.538	5.86
2.548	5.82
2.558	5.93
2.569	5.85
2.579	5.87
2.589	5.99
2.599	5.7
2.61	5.88
2.62	5.7
2.631	5.88
2.642	5.95
2.653	5.77
2.664	5.63
2.675	5.46
2.686	5.19
2.697	4.8
2.708	4.38
2.719	3.86
2.731	3.19
2.742	2.94
2.754	2.57
2.766	2.42
2.778	2.44
2.79	2.26
2.802	2.41
2.814	2.23
2.826	2.13
2.838	2.18
2.851	2.03
2.864	2.08
2.876	2.05
2.889	2.03
2.902	2.18
2.915	2.05
2.928	2.12
2.942	2.11
2.955	2.06
2.968	2.04
2.982	2.14
2.996	2.24
3.01	2.03
3.024	2.21
3.038	2.2
3.052	2.17
3.067	2.12
3.081	2.08
3.096	2.24
3.111	2.17
3.126	2.21
3.141	2.33
3.156	2.31
3.172	2.33
3.187	2.55
3.203	2.48
3.219	2.48
3.235	2.61
3.251	2.64
3.268	2.79
3.284	2.75
3.301	2.82
3.318	2.92
3.335	2.81
3.352	2.79
3.37	2.82
3.387	2.93
3.405	3.05
3.423	3.13
3.441	3.17
3.46	3.13
3.478	3.04
3.497	3.17
3.516	3.45
3.535	3.67
3.554	3.85
3.574	3.87
3.594	4.14
3.614	4.12
3.634	4.22
3.655	4.28
3.675	4.31
3.696	4.46
3.717	4.5
3.739	4.47
3.761	4.51
3.782	4.49
3.805	4.23
3.827	3.97
3.85	3.81
3.873	3.76
3.896	3.75
3.92	3.63
3.944	3.28
3.968	2.86
3.992	3.07
4.017	3.72
4.042	4.36
4.067	4.54
4.093	4.71
4.119	4.75
4.145	4.82
4.172	4.85
4.199	4.9
4.226	4.82
4.254	4.82
4.282	4.81
4.311	4.77
4.34	4.77
4.369	4.79
4.398	4.85
4.428	4.78
4.459	4.7
4.49	4.66
4.521	4.63
4.553	4.58
4.585	4.57
4.618	4.45
4.651	4.45
4.684	4.35
4.719	4.4
4.753	4.42
4.788	4.41
4.824	4.4
4.86	4.34
4.897	4.31
4.934	4.23
4.972	4.2
5.01	4.18
5.049	4.16
5.089	4.03
5.129	4.01
5.17	4
5.212	3.97
5.254	3.88
5.297	3.76
5.341	3.64
5.385	3.57
5.43	3.44
5.476	3.29
5.523	2.71
5.57	1.99
5.618	2.7
5.667	2.8
5.717	2.7
5.768	2.65
5.82	2.55
5.873	2.35
5.926	2.11
5.981	1.86
6.037	1.76
6.094	1.77
6.151	2.07
6.21	2.58
6.27	3.39
6.332	4.72
6.394	7.88
6.458	10.51
6.523	10.34
6.589	9.08
6.657	8.08
6.726	7.73
6.796	7.69
6.868	7.58
6.942	7.39
7.017	7.63
7.094	7.42
7.172	5.43
7.252	4.51
7.334	4.45
7.418	4.63
7.504	4.88
7.592	5.05
7.682	5.35
7.774	5.49
7.869	5.33
7.965	4.91
8.064	4.33
8.166	3.98
8.27	3.54
8.377	3.05
8.487	2.81
8.599	2.78
8.715	2.81
8.834	3.02
8.956	3.34
9.081	3.37
9.21	3.33
9.343	3.46
9.479	3.61
9.62	3.52
9.765	3.58
9.914	3.41
10.068	3.28
10.227	3.2
10.391	3.12
10.56	3.2
10.735	3.23
10.916	3.33
11.103	3.4
11.297	6.72
11.497	3.97
11.704	2.72
11.92	2.46
12.143	2.32
12.375	1.99
12.616	1.97
12.866	1.88
13.126	1.91
13.398	1.77
13.68	1.7
13.975	1.89
