Name: Altered volcanic tuff
Type: Rock
Class: Igneous
Subclass: Felsic
Particle Size: Whole rock chips
Sample No.: Cup5
Owner: USGS
Origin: Cuprite, Nevada
Description: Altered volcanic tuff, white
Measurement: Directional Hemispherical Reflectance
X Units: Wavelength (micrometers)
Y Units: Reflectance (percent)
wavelength	value
0.4	22.6169
0.424	24.907
0.448	27.5059
0.472	29.0932
0.496	30.7461
0.52	32.8067
0.544	35.2097
0.568	38.0429
0.592	40.3336
0.616	41.7959
0.64	42.7904
0.664	43.7447
0.688	44.6918
0.712	45.4488
0.736	46.1531
0.76	46.8327
0.784	47.352
0.808	47.9373
0.832	48.1741
0.856	47.6611
0.88	47.5993
0.904	47.8099
0.928	47.9764
0.952	48.4284
0.976	48.7176
1	49.076
1.024	49.9719
1.048	50.6767
1.072	51.1988
1.096	51.5874
1.12	51.9354
1.144	51.8405
1.168	52.0311
1.192	52.3663
1.216	52.63
1.24	52.3783
1.264	51.6225
1.288	52.8892
1.312	53.0184
1.336	51.8572
1.36	51.0047
1.384	48.3619
1.408	44.2767
1.432	39.9656
1.456	41.6753
1.48	37.5454
1.504	45.3545
1.528	47.7627
1.552	48.7802
1.576	49.2802
1.6	49.5644
1.624	49.8311
1.648	49.9104
1.672	49.729
1.696	49.2309
1.72	48.1945
1.744	44.9683
1.768	42.5656
1.792	45.7569
1.816	47.5639
1.84	47.5743
1.864	45.8345
1.888	38.5309
1.912	32.8372
1.936	33.5678
1.96	34.6022
1.984	36.0138
2.008	36.2034
2.032	36.731
2.056	36.2502
2.08	36.1061
2.104	34.7157
2.128	30.5076
2.152	27.3337
2.176	26.2628
2.2	28.6516
2.224	31.7196
2.248	35.4932
2.272	35.5692
2.296	34.7149
2.32	29.4553
2.344	33.1583
2.368	32.7162
2.392	27.1692
2.416	24.1614
2.44	21.9324
2.464	21.3583
2.488	20.8542
2.504	18.437
2.511	17.2937
2.519	17.4894
2.526	19.4052
2.533	20.4867
2.541	21.1974
2.548	21.3828
2.556	21.012
2.563	20.7545
2.571	20.5691
2.579	20.5073
2.586	20.4867
2.594	21.7433
2.602	21.63
2.61	21.3519
2.618	21.9081
2.626	21.8051
2.634	21.7021
2.642	21.8875
2.65	20.3013
2.658	18.3752
2.666	17.0877
2.675	14.5127
2.683	12.8235
2.691	10.5987
2.7	7.9516
2.708	6.1182
2.717	4.9543
2.725	4.7277
2.734	4.1921
2.742	4.0582
2.751	3.5329
2.76	3.5226
2.769	3.4196
2.778	3.1621
2.787	3.2033
2.796	2.987
2.805	2.7707
2.814	2.6883
2.823	2.7501
2.832	2.7707
2.842	3.2754
2.851	2.9252
2.86	3.502
2.87	4.1097
2.879	3.2548
2.889	2.9046
2.899	2.6059
2.909	2.6265
2.918	2.6368
2.928	2.8943
2.938	2.6368
2.948	2.4411
2.958	2.6162
2.968	2.8428
2.979	2.5956
2.989	2.6677
2.999	2.4411
3.01	2.8428
3.02	2.7707
3.031	2.9252
3.042	2.8325
3.052	2.9767
3.063	2.9046
3.074	3.1827
3.085	2.8943
3.096	2.987
3.107	2.987
3.118	3.2651
3.13	3.0694
3.141	3.4814
3.152	3.4505
3.164	3.5432
3.176	3.7904
3.187	3.7904
3.199	3.8625
3.211	4.0273
3.223	4.0582
3.235	4.2024
3.247	4.4084
3.259	4.5217
3.272	4.532
3.284	4.738
3.297	4.8204
3.309	4.9646
3.322	5.15
3.335	5.1088
3.348	5.2015
3.361	5.2427
3.374	5.1912
3.387	5.3148
3.401	5.2118
3.414	5.3354
3.428	5.3354
3.441	5.768
3.455	6.1697
3.469	6.489
3.483	6.695
3.497	6.798
3.511	6.9319
3.525	7.7353
3.54	8.2503
3.554	8.4151
3.569	8.858
3.584	9.1464
3.599	9.4657
3.614	9.6717
3.629	10.0734
3.644	10.4236
3.66	10.609
3.675	10.8768
3.691	11.1858
3.707	11.4948
3.723	11.6596
3.739	11.9068
3.755	12.1128
3.771	12.3703
3.788	12.6381
3.805	12.6999
3.822	12.7617
3.838	12.7926
3.856	12.8647
3.873	12.0613
3.89	12.7617
3.908	12.7514
3.926	12.6587
3.944	12.463
3.962	12.4115
3.98	12.257
3.998	12.1231
4.017	12.1437
4.036	11.9583
4.055	11.6802
4.074	11.4021
4.093	11.0416
4.112	10.7841
4.132	10.6193
4.152	10.4339
4.172	10.4648
4.192	10.3515
4.213	10.1455
4.233	9.6099
4.254	9.0537
4.275	8.6726
4.296	8.2297
4.318	7.4778
4.34	6.9216
4.361	6.6229
4.384	6.7465
4.406	6.7053
4.428	6.5714
4.451	6.4478
4.474	6.3551
4.498	6.2109
4.521	6.2727
4.545	5.974
4.569	5.9328
4.593	5.6856
4.618	5.768
4.643	6.0255
4.668	5.9946
4.693	5.9431
4.719	5.6444
4.744	6.077
4.771	6.8186
4.797	7.3645
4.824	7.004
4.851	6.2624
4.878	5.7886
4.906	5.1809
4.934	4.9028
4.962	4.6247
4.991	4.6144
5.02	4.6762
5.049	4.7174
5.079	4.7998
5.109	4.8822
5.139	4.841
5.17	4.6144
5.201	4.2745
5.233	3.8625
5.265	3.4505
5.297	3.2239
5.33	3.1518
5.363	3.3063
5.396	3.605
5.43	3.8213
5.464	3.9243
5.499	3.7904
5.534	3.708
5.57	3.6153
5.606	3.6359
5.643	3.5123
5.68	3.4608
5.717	3.1621
5.755	3.0591
5.794	3.0591
5.833	2.9561
5.873	2.7707
5.913	2.4617
5.954	2.2145
5.995	2.06
6.037	1.8952
6.079	1.8334
6.122	1.8437
6.166	1.8746
6.21	1.9879
6.255	2.1115
6.301	2.0909
6.347	2.2557
6.394	2.3793
6.442	2.2454
6.49	2.2248
6.539	2.0291
6.589	2.0188
6.64	1.8231
6.691	1.7304
6.743	1.6583
6.796	1.4111
6.85	1.4008
6.905	1.2463
6.96	1.2051
7.017	1.1948
7.074	1.1742
7.133	1.1742
7.192	1.1845
7.252	1.0506
7.314	1.1742
7.376	1.1742
7.44	1.2051
7.504	1.3699
7.57	1.5244
7.637	1.8334
7.705	2.472
7.774	3.6565
7.845	5.7783
7.917	7.9104
7.99	8.549
8.064	8.5181
8.14	8.9713
8.218	9.5893
8.297	10.4236
8.377	11.6287
8.459	13.6475
8.543	16.4903
8.628	16.4079
8.715	19.2095
8.804	21.8257
8.894	23.896
8.987	24.4316
9.081	23.1132
9.178	20.8678
9.276	17.6233
9.377	14.1831
9.479	11.8862
9.585	10.5987
9.692	10.0322
9.802	8.9713
9.914	7.7456
10.029	6.9319
10.147	6.2212
10.268	5.7062
10.391	5.2736
10.518	5.0058
10.647	4.7689
10.78	4.5423
10.916	4.3569
11.056	4.3157
11.199	4.0788
11.346	3.7698
11.497	3.6668
11.652	3.2857
11.811	3.0591
11.975	2.7913
12.143	2.6368
12.316	2.3999
12.494	2.781
12.677	3.2651
12.866	3.5329
13.06	3.09
13.261	2.9664
13.467	2.9973
13.68	3.2754
13.9	4.4393
