Name: Kaliborite KHMg2B12O16(OH)10 * 4H2O
Type: Mineral
Class: Borate
Subclass: None
Particle Size: Unsieved coarse powder
Sample No.: NMNH 160075
Owner: Smithsonian Institute, National Museum of Nat. History
Origin: Spain
Description: Kaliborite from Spain
Measurement: Directional Hemispherical Reflectance
X Units: Wavelength (micrometers)
Y Units: Reflectance (percent)
wavelength	value
0.4	28.0036
0.414	30.6116
0.428	32.4714
0.442	33.7539
0.456	34.6486
0.47	35.2608
0.484	35.7282
0.498	36.1527
0.512	36.4437
0.526	36.6766
0.54	36.8725
0.554	37.0649
0.568	37.2534
0.582	37.4034
0.596	37.5355
0.61	37.6329
0.624	37.7196
0.638	37.7857
0.652	37.8444
0.666	37.8867
0.68	37.9131
0.694	37.9265
0.708	37.9689
0.722	37.9859
0.736	38.0189
0.75	38.0565
0.764	38.1182
0.778	38.1457
0.792	38.1712
0.806	38.215
0.82	38.2017
0.834	38.2043
0.848	38.2372
0.862	38.3593
0.876	38.2096
0.89	38.3035
0.904	38.3146
0.918	38.317
0.932	38.482
0.946	38.5298
0.96	38.4044
0.974	38.1868
0.988	38.1755
1.002	38.1885
1.016	38.2462
1.03	38.4947
1.044	38.7235
1.058	38.8789
1.072	38.9508
1.086	39.049
1.1	39.0768
1.114	39.176
1.128	39.1235
1.142	39.0115
1.156	38.8214
1.17	38.3222
1.184	38.1614
1.198	37.8867
1.212	37.8594
1.226	37.8464
1.24	37.9447
1.254	37.6927
1.268	37.3174
1.282	37.1916
1.296	36.9037
1.31	36.552
1.324	36.0416
1.338	35.4545
1.352	34.4291
1.366	33.5275
1.38	32.5159
1.394	31.1142
1.408	28.7759
1.422	24.8008
1.436	21.2666
1.45	19.1038
1.464	16.8685
1.478	16.133
1.492	16.8622
1.506	17.4722
1.52	18.073
1.534	18.0751
1.548	18.0726
1.562	17.8069
1.576	17.583
1.59	17.5254
1.604	17.7058
1.618	17.4984
1.632	17.1451
1.646	16.6331
1.66	16.2897
1.674	16.1322
1.688	15.978
1.702	15.9242
1.716	16.2832
1.73	16.6615
1.744	16.9291
1.758	17.1278
1.772	17.1513
1.786	17.0625
1.8	16.9264
1.814	16.4112
1.828	16.2401
1.842	16.0604
1.856	15.6331
1.87	15.0852
1.884	14.168
1.898	12.7752
1.912	10.7995
1.926	9.0274
1.94	8.7463
1.954	8.4826
1.968	7.8153
1.982	7.8234
1.996	8.1767
2.01	8.6109
2.024	8.8623
2.038	9.1691
2.052	9.3613
2.066	9.4077
2.08	9.3808
2.094	9.4023
2.108	9.3504
2.122	9.1836
2.136	8.9882
2.15	8.8783
2.164	8.7567
2.178	8.7634
2.192	8.8245
2.206	8.9603
2.22	9.1149
2.234	9.0833
2.248	9.2564
2.262	9.3417
2.276	9.3664
2.29	9.4199
2.304	9.2282
2.318	8.8997
2.332	8.5054
2.346	8.0449
2.36	7.6253
2.374	7.2571
2.388	6.9283
2.402	6.5481
2.416	6.1966
2.43	6.0281
2.444	5.7895
2.458	5.4741
2.472	5.1248
2.486	5.2132
2.5	4.8204
2.509	4.7792
2.517	4.7483
2.526	4.6865
2.535	4.5835
2.543	4.4702
2.552	4.3466
2.561	4.2333
2.57	4.2024
2.579	4.1612
2.588	4.2127
2.597	4.2024
2.606	4.2436
2.615	4.0891
2.624	4.12
2.634	3.9037
2.643	3.8007
2.653	3.5947
2.662	3.4608
2.672	3.1518
2.681	2.8943
2.691	2.6883
2.701	2.4411
2.711	2.369
2.721	2.06
2.731	1.8952
2.741	1.5965
2.751	1.4214
2.761	1.2566
2.772	1.0506
2.782	1.0815
2.793	0.9373
2.803	0.927
2.814	0.8446
2.825	0.8755
2.835	0.7313
2.846	0.8549
2.857	0.824
2.868	0.8034
2.879	0.824
2.891	0.8343
2.902	0.9579
2.913	0.8549
2.925	0.9476
2.937	1.0094
2.948	0.9476
2.96	0.9991
2.972	1.1124
2.984	1.2875
2.996	1.2463
3.008	1.2257
3.02	1.2978
3.033	1.2154
3.045	1.1948
3.058	1.339
3.07	1.1433
3.083	1.2257
3.096	1.2051
3.109	1.2051
3.122	1.2154
3.135	1.339
3.149	1.4317
3.162	1.5244
3.176	1.5347
3.189	1.3699
3.203	1.4523
3.217	1.4832
3.231	1.442
3.245	1.3699
3.259	1.4935
3.274	1.5038
3.288	1.4729
3.303	1.5347
3.318	1.5965
3.333	1.6274
3.348	1.6892
3.363	1.6892
3.378	1.6583
3.394	1.6892
3.409	1.7407
3.425	1.7922
3.441	1.8128
3.457	1.9158
3.473	1.8746
3.49	1.9776
3.506	1.957
3.523	1.9467
3.54	2.06
3.557	2.0703
3.574	2.0394
3.591	2.1218
3.609	2.0806
3.626	2.1012
3.644	2.1939
3.662	2.0806
3.68	2.163
3.699	2.1836
3.717	2.1424
3.736	2.0909
3.755	2.1218
3.774	2.1115
3.794	2.1424
3.813	2.2042
3.833	2.0806
3.853	2.1424
3.873	2.1424
3.893	2.1115
3.914	2.1527
3.935	2.0909
3.956	2.0909
3.977	1.9467
3.998	1.9158
4.02	1.8952
4.042	1.8437
4.064	1.9158
4.086	1.9261
4.109	1.9364
4.132	1.9673
4.155	2.0806
4.179	2.06
4.202	2.0497
4.226	2.1218
4.251	2.1321
4.275	2.0909
4.3	2.0085
4.325	1.9879
4.35	1.9158
4.376	1.8849
4.402	1.8746
4.428	1.8849
4.455	1.8437
4.482	1.8643
4.509	1.8952
4.537	1.9158
4.565	1.9261
4.593	1.8643
4.622	1.8643
4.651	1.8643
4.68	1.8643
4.71	1.854
4.74	1.8334
4.771	1.7613
4.802	1.751
4.833	1.6892
4.865	1.7201
4.897	1.6068
4.929	1.6377
4.962	1.648
4.996	1.6789
5.03	1.6171
5.064	1.5862
5.099	1.5965
5.134	1.5141
5.17	1.4729
5.206	1.442
5.243	1.4729
5.281	1.4111
5.319	1.2978
5.357	1.2669
5.396	1.2257
5.436	1.1845
5.476	1.1124
5.517	1.0609
5.558	1.03
5.6	0.9888
5.643	0.9373
5.686	0.8858
5.73	0.8652
5.775	0.8034
5.82	0.7931
5.866	0.7313
5.913	0.6592
5.96	0.5974
6.009	0.5974
6.058	0.5871
6.108	0.5459
6.159	0.5356
6.21	0.5253
6.263	0.5356
6.316	0.5459
6.37	0.4944
6.426	0.4944
6.482	0.4841
6.539	0.7107
6.597	1.0712
6.657	1.1021
6.717	1.2051
6.778	1.3493
6.841	1.6583
6.905	1.9261
6.97	2.0085
7.036	1.9261
7.103	1.957
7.172	2.6574
7.242	3.4299
7.314	4.2848
7.387	3.811
7.461	3.914
7.537	3.193
7.614	2.884
7.694	4.4187
7.774	3.9861
7.857	2.4926
7.941	2.1321
8.027	1.7819
8.115	1.3905
8.205	1.3699
8.297	1.3081
8.391	1.4729
8.487	1.9467
8.585	1.6274
8.686	1.2463
8.789	1.3081
8.894	1.8952
9.002	2.8428
9.113	2.2248
9.226	2.2351
9.343	3.6462
9.462	4.9131
9.585	4.6556
9.71	4.1406
9.839	3.6256
9.972	3.2754
10.108	3.8316
10.247	3.811
10.391	3.8522
10.539	2.6162
10.691	2.9355
10.848	4.9028
11.009	4.9749
11.175	4.7586
11.346	4.8616
11.522	4.7689
11.704	4.2642
11.892	3.3166
12.086	3.0694
12.287	2.4926
12.494	2.8737
12.708	2.9767
12.93	2.6471
13.16	2.678
13.398	2.7707
13.644	3.3269
13.9	3.3372
