Name: Basalt
Type: Rock
Class: Igneous
Subclass: Mafic
Particle Size: Whole rock chips
Sample No.: ba14c1f
Owner: Larry Rowan, USGS
Origin: Kerak/DAT RAS, Jordan
Description: medium grained,dark gray basalt
Measurement: Reflectance
X Units: Wavelength (micrometers)
Y Units: Reflectance (percent)
wavelength	value
0.4	12
0.408	11.6
0.416	11.8
0.424	11.7
0.432	11.4
0.44	11.2
0.448	10.9
0.456	10.5
0.464	9.8
0.472	9.5
0.48	9.6
0.488	9.4
0.496	9.5
0.504	9.2
0.512	9.2
0.52	9.2
0.528	9.2
0.536	9.2
0.544	9.5
0.552	9.5
0.56	10
0.568	10.3
0.576	10.2
0.584	10.1
0.592	10.1
0.6	10.1
0.608	10.5
0.616	10.6
0.624	10.7
0.632	10.5
0.64	10.6
0.648	10.7
0.656	10.5
0.664	10.6
0.672	10.8
0.68	10.7
0.688	10.7
0.696	10.7
0.704	10.5
0.712	10.7
0.72	10.7
0.728	10.9
0.736	10.8
0.744	10.8
0.752	10.8
0.76	10.7
0.768	10.8
0.776	10.9
0.784	10.8
0.792	10.8
0.8	11.2
0.832	11
0.864	10.9
0.896	11
0.928	10.7
0.96	10.6
0.992	10.4
1.024	10.4
1.056	10.4
1.088	10.4
1.12	10.4
1.152	10.4
1.184	10.5
1.216	10.5
1.248	10.5
1.28	10.6
1.312	10.7
1.344	10.7
1.376	10.6
1.408	10.9
1.44	11.1
1.472	11.2
1.504	11.4
1.536	11.6
1.568	11.8
1.6	12.1
1.632	12.1
1.664	12.2
1.696	12.1
1.728	12.2
1.76	12.1
1.792	12.2
1.824	12.2
1.856	12
1.888	11.6
1.92	11.5
1.952	11.5
1.984	11.7
2.016	11.8
2.048	12
2.08	12
2.102	10.4
2.109	10.59
2.116	10.19
2.123	10.32
2.13	10.68
2.137	10.28
2.144	10.3
2.151	10.57
2.158	10.31
2.165	10.38
2.173	10.45
2.18	10.12
2.187	10.18
2.195	10.24
2.202	10.3
2.21	10.16
2.217	10.46
2.225	10.38
2.232	10.13
2.24	10.09
2.248	10.25
2.256	10.24
2.264	10.21
2.272	10.37
2.28	10.23
2.288	10.32
2.296	10.08
2.304	10.11
2.312	10.33
2.32	10.19
2.329	10.36
2.337	10.13
2.346	10.15
2.354	10.2
2.363	10.09
2.371	10.16
2.38	10.1
2.389	10.24
2.398	10.17
2.406	9.96
2.415	9.95
2.424	9.96
2.434	10.03
2.443	9.83
2.452	9.81
2.461	9.99
2.471	9.93
2.48	9.92
2.49	9.86
2.499	9.88
2.509	9.81
2.519	9.77
2.528	9.89
2.538	9.96
2.548	9.71
2.558	9.87
2.569	9.5
2.579	9.75
2.589	9.64
2.599	9.82
2.61	9.43
2.62	9.22
2.631	9.48
2.642	9.58
2.653	9.37
2.664	8.86
2.675	8.54
2.686	8.48
2.697	7.52
2.708	6.22
2.719	5.87
2.731	5.82
2.742	5.18
2.754	4.88
2.766	4.83
2.778	5.11
2.79	5.19
2.802	4.87
2.814	4.85
2.826	5.11
2.838	4.89
2.851	5.05
2.864	5.03
2.876	4.99
2.889	4.96
2.902	4.87
2.915	4.92
2.928	5.05
2.942	4.98
2.955	5.04
2.968	5
2.982	4.97
2.996	5.05
3.01	5.04
3.024	5.04
3.038	5.08
3.052	5.14
3.067	5.16
3.081	5.14
3.096	5.32
3.111	5.34
3.126	5.4
3.141	5.36
3.156	5.45
3.172	5.61
3.187	5.73
3.203	5.77
3.219	5.99
3.235	6.05
3.251	6.08
3.268	6.27
3.284	6.36
3.301	6.44
3.318	6.49
3.335	6.61
3.352	6.5
3.37	6.64
3.387	6.79
3.405	6.89
3.423	7.11
3.441	7.13
3.46	7.09
3.478	7.08
3.497	7.17
3.516	7.27
3.535	7.44
3.554	7.43
3.574	7.5
3.594	7.6
3.614	7.62
3.634	7.69
3.655	7.69
3.675	7.78
3.696	7.84
3.717	7.84
3.739	7.8
3.761	7.82
3.782	7.79
3.805	7.72
3.827	7.57
3.85	7.55
3.873	7.4
3.896	7.46
3.92	7.42
3.944	7.42
3.968	7.29
3.992	7.28
4.017	7.29
4.042	7.43
4.067	7.41
4.093	7.37
4.119	7.33
4.145	7.31
4.172	7.21
4.199	7.08
4.226	6.49
4.254	6.77
4.282	6.41
4.311	6.53
4.34	6.6
4.369	6.54
4.398	6.41
4.428	6.3
4.459	6.15
4.49	5.93
4.521	5.81
4.553	5.74
4.585	5.57
4.618	5.44
4.651	5.29
4.684	5.13
4.719	5.04
4.753	4.9
4.788	4.78
4.824	4.72
4.86	4.62
4.897	4.54
4.934	4.44
4.972	4.35
5.01	4.25
5.049	4.14
5.089	4.11
5.129	3.97
5.17	3.91
5.212	3.81
5.254	3.76
5.297	3.65
5.341	3.54
5.385	3.51
5.43	3.4
5.476	3.25
5.523	3.21
5.57	3.03
5.618	3.08
5.667	2.97
5.717	2.92
5.768	2.83
5.82	2.63
5.873	2.55
5.926	2.54
5.981	2.53
6.037	2.41
6.094	2.58
6.151	2.54
6.21	2.7
6.27	2.73
6.332	2.78
6.394	3.03
6.458	3.5
6.523	3.5
6.589	3.32
6.657	3.33
6.726	3.25
6.796	3.19
6.868	2.99
6.942	2.92
7.017	2.85
7.094	2.74
7.172	2.45
7.252	2.24
7.334	2.04
7.418	2.05
7.504	1.89
7.592	1.88
7.682	1.69
7.774	1.61
7.869	1.62
7.965	1.56
8.064	1.77
8.166	2.29
8.27	3.62
8.377	4.96
8.487	5.68
8.599	6.48
8.715	7.28
8.834	8.23
8.956	8.88
9.081	8.84
9.21	8.43
9.343	9.35
9.479	10.52
9.62	11.15
9.765	11.35
9.914	11.25
10.068	10.75
10.227	10.94
10.391	11.16
10.56	10.82
10.735	11.56
10.916	11.32
11.103	10.43
11.297	10.06
11.497	8.23
11.704	6.75
11.92	5.91
12.143	5.39
12.375	4.52
12.616	4.03
12.866	3.78
13.126	3.67
13.398	3.68
13.68	3.55
13.975	3.48
