Name: Kernite  Na2B4O6(OH)2 * 3H2O
Type: Mineral
Class: Borate
Subclass: None
Particle Size: Unsieved coarse powder
Sample No.: None
Owner: USGS
Origin: Boron, California
Description: Kernite from Boron, California.
Measurement: Directional Hemispherical Reflectance
X Units: Wavelength (micrometers)
Y Units: Reflectance (percent)
wavelength	value
0.4	73.348
0.414	73.1782
0.428	73.0972
0.442	73.1379
0.456	73.2633
0.47	73.2592
0.484	73.3358
0.498	73.5437
0.512	73.612
0.526	73.7226
0.54	73.8717
0.554	73.9926
0.568	74.0403
0.582	74.0931
0.596	74.1174
0.61	74.1339
0.624	74.0607
0.638	74.1032
0.652	74.0179
0.666	73.9595
0.68	73.867
0.694	73.7773
0.708	73.7318
0.722	73.6688
0.736	73.6139
0.75	73.5083
0.764	73.2897
0.778	73.5113
0.792	73.5997
0.806	73.6479
0.82	73.6248
0.834	73.5939
0.848	73.5079
0.862	73.5762
0.876	73.5626
0.89	73.1844
0.904	73.4819
0.918	73.2865
0.932	73.3221
0.946	73.3106
0.96	73.1096
0.974	72.3352
0.988	69.6052
1.002	71.034
1.016	71.5937
1.03	72.0367
1.044	72.1194
1.058	72.4272
1.072	72.4176
1.086	72.3681
1.1	72.3961
1.114	72.2044
1.128	72.0895
1.142	71.974
1.156	71.5173
1.17	71.1583
1.184	70.1726
1.198	69.0486
1.212	68.4424
1.226	67.9287
1.24	67.3928
1.254	66.6072
1.268	66.3573
1.282	67.1825
1.296	67.3868
1.31	66.8987
1.324	66.1696
1.338	66.6473
1.352	66.072
1.366	65.4165
1.38	64.7984
1.394	64.0404
1.408	61.4097
1.422	56.3669
1.436	46.7039
1.45	42.7431
1.464	47.4106
1.478	46.2825
1.492	45.2758
1.506	45.0028
1.52	45.4447
1.534	46.2725
1.548	46.2457
1.562	46.2274
1.576	46.3268
1.59	46.4681
1.604	46.7836
1.618	47.3496
1.632	48.1119
1.646	48.7247
1.66	49.1678
1.674	49.3161
1.688	49.2248
1.702	49.1508
1.716	48.8861
1.73	48.5249
1.744	48.0162
1.758	47.6316
1.772	47.1517
1.786	46.5317
1.8	46.4423
1.814	46.7104
1.828	47.2116
1.842	47.5441
1.856	47.6278
1.87	46.7742
1.884	45.5141
1.898	42.5309
1.912	38.6028
1.926	35.354
1.94	32.2569
1.954	29.1825
1.968	27.078
1.982	26.4984
1.996	26.8619
2.01	27.4586
2.024	28.6718
2.038	29.1138
2.052	29.2562
2.066	31.1266
2.08	32.7827
2.094	33.7517
2.108	34.4333
2.122	35.1336
2.136	35.0492
2.15	34.4704
2.164	33.7148
2.178	30.5685
2.192	25.1088
2.206	27.6429
2.22	30.8871
2.234	32.932
2.248	34.6252
2.262	35.2122
2.276	35.92
2.29	36.5809
2.304	37.8182
2.318	38.5437
2.332	38.0462
2.346	36.8207
2.36	35.5071
2.374	34.0002
2.388	31.6615
2.402	29.8061
2.416	28.5524
2.43	27.3562
2.444	26.856
2.458	26.78
2.472	26.4347
2.486	26.412
2.5	26.6667
2.509	26.6873
2.517	26.4607
2.526	26.5946
2.535	26.2238
2.543	25.956
2.552	25.7809
2.561	25.853
2.57	26.4916
2.579	27.6864
2.588	28.0675
2.597	27.9954
2.606	27.5937
2.615	27.4495
2.624	26.4813
2.634	25.8324
2.643	24.9569
2.653	24.102
2.662	22.8454
2.672	21.4446
2.681	19.8687
2.691	18.0353
2.701	16.7581
2.711	15.0071
2.721	12.8956
2.731	10.2176
2.741	7.6838
2.751	5.665
2.761	4.6247
2.772	3.1312
2.782	2.0909
2.793	1.442
2.803	0.8137
2.814	0.7622
2.825	1.4832
2.835	1.6171
2.846	1.4008
2.857	1.236
2.868	1.2463
2.879	1.0918
2.891	0.9167
2.902	0.8343
2.913	0.8652
2.925	0.9167
2.937	1.1124
2.948	0.9991
2.96	0.8961
2.972	0.927
2.984	1.0815
2.996	1.1845
3.008	1.3596
3.02	1.3699
3.033	1.5141
3.045	1.6171
3.058	1.8334
3.07	1.7304
3.083	1.8643
3.096	1.854
3.109	1.9158
3.122	1.957
3.135	1.9776
3.149	2.0188
3.162	2.163
3.176	2.2248
3.189	2.3484
3.203	2.3278
3.217	2.4823
3.231	2.7089
3.245	2.6883
3.259	2.7295
3.274	2.8531
3.288	2.8737
3.303	2.9252
3.318	3.0488
3.333	3.1621
3.348	3.3681
3.363	3.6462
3.378	3.8522
3.394	4.2951
3.409	4.5423
3.425	4.8513
3.441	5.1191
3.457	5.2942
3.473	5.4796
3.49	5.6547
3.506	5.7886
3.523	5.974
3.54	6.2109
3.557	6.386
3.574	6.5714
3.591	6.8186
3.609	7.0658
3.626	7.2409
3.644	7.5808
3.662	8.0237
3.68	8.4254
3.699	8.858
3.717	9.1052
3.736	9.4142
3.755	9.5172
3.774	9.579
3.794	9.5687
3.813	9.7747
3.833	10.0837
3.853	10.1867
3.873	10.2176
3.893	10.1249
3.914	10.1558
3.935	10.2279
3.956	10.094
3.977	9.8365
3.998	9.3936
4.02	8.858
4.042	8.1885
4.064	7.8177
4.086	7.7971
4.109	7.7868
4.132	7.7147
4.155	7.4984
4.179	7.1791
4.202	6.7568
4.226	6.6126
4.251	5.7989
4.275	5.7886
4.3	5.5105
4.325	5.4178
4.35	5.253
4.376	5.047
4.402	4.8925
4.428	4.7277
4.455	4.6453
4.482	4.6556
4.509	4.5732
4.537	4.5835
4.565	4.6762
4.593	4.8822
4.622	5.0676
4.651	5.2427
4.68	5.2839
4.71	5.4384
4.74	5.6238
4.771	5.8916
4.802	6.1697
4.833	6.3139
4.865	6.3448
4.897	6.5302
4.929	6.7568
4.962	6.9525
4.996	7.107
5.03	7.1482
5.064	7.1791
5.099	7.1585
5.134	7.0967
5.17	6.9525
5.206	6.7877
5.243	6.8289
5.281	6.8186
5.319	6.5302
5.357	6.1697
5.396	5.8092
5.436	5.4796
5.476	5.0882
5.517	4.6556
5.558	4.2539
5.6	3.811
5.643	3.3372
5.686	2.8531
5.73	2.369
5.775	2.0085
5.82	1.545
5.866	1.4008
5.913	1.4317
5.96	1.4523
6.009	1.3596
6.058	1.339
6.108	1.2772
6.159	1.1948
6.21	1.1536
6.263	1.1124
6.316	1.0197
6.37	0.8755
6.426	0.8446
6.482	0.7622
6.539	0.6283
6.597	0.5871
6.657	0.618
6.717	0.8137
6.778	1.0918
6.841	1.2566
6.905	2.6471
6.97	4.7174
7.036	6.4478
7.103	7.8177
7.172	8.1885
7.242	7.5293
7.314	5.9431
7.387	5.15
7.461	4.8204
7.537	3.8625
7.614	3.4299
7.694	3.5123
7.774	3.4402
7.857	3.2445
7.941	2.9767
8.027	2.6368
8.115	2.2763
8.205	1.9364
8.297	1.545
8.391	1.1639
8.487	0.8858
8.585	0.9888
8.686	0.927
8.789	0.8034
8.894	1.0712
9.002	1.9776
9.113	2.7604
9.226	4.1715
9.343	7.0658
9.462	10.2794
9.585	11.8038
9.71	10.3103
9.839	9.1876
9.972	5.8607
10.108	7.9001
10.247	7.3439
10.391	6.6023
10.539	6.695
10.691	5.9122
10.848	5.871
11.009	4.8822
11.175	3.5844
11.346	3.3784
11.522	3.7904
11.704	4.0685
11.892	4.0582
12.086	4.223
12.287	3.914
12.494	3.9346
12.708	3.4917
12.93	3.3063
13.16	3.3475
13.398	3.3269
13.644	3.193
13.9	3.6462
