Name: Limestone CaCO3
Type: Rock
Class: Sedimentary
Subclass: Limestone
Particle Size: Whole rock chips
Sample No.: ro397
Owner: Larry Rowan, USGS
Origin: Ronda, Spain
Description: gray vesicular vuggy limestone
Measurement: Reflectance
X Units: Wavelength (micrometers)
Y Units: Reflectance (percent)
wavelength	value
0.4	21.9
0.408	21.7
0.416	21.9
0.424	21.9
0.432	21.7
0.44	21.7
0.448	21.9
0.456	21.7
0.464	21.9
0.472	21.9
0.48	21.9
0.488	21.9
0.496	22.3
0.504	22.5
0.512	22.8
0.52	23
0.528	23.3
0.536	23.4
0.544	23.6
0.552	24.1
0.56	24.1
0.568	24.1
0.576	24.2
0.584	24.8
0.592	24.3
0.6	24.4
0.608	24.5
0.616	24.3
0.624	24.8
0.632	24.5
0.64	24.7
0.648	24.4
0.656	24.7
0.664	24.5
0.672	24.8
0.68	24.9
0.688	24.7
0.696	25.5
0.704	26
0.712	26.4
0.72	26.7
0.728	27.2
0.736	27.5
0.744	27.8
0.752	28.1
0.76	28.3
0.768	28.7
0.776	29.1
0.784	29.9
0.792	30.2
0.8	31.3
0.832	33.3
0.864	36.5
0.896	38.6
0.928	40.4
0.96	41.3
0.992	42.7
1.024	44.3
1.056	45.2
1.088	45.7
1.12	46.3
1.152	47.9
1.184	47.9
1.216	48.1
1.248	48.5
1.28	49.1
1.312	49.3
1.344	49.5
1.376	49.7
1.408	47.9
1.44	46.6
1.472	47.6
1.504	47.9
1.536	47.9
1.568	48.6
1.6	49.5
1.632	49.1
1.664	50.1
1.696	48.7
1.728	49.6
1.76	48.8
1.792	49.3
1.824	49.7
1.856	48.2
1.888	45.7
1.92	40
1.952	40
1.984	41.8
2.016	44.4
2.048	43.8
2.08	43.6
2.102	47.56
2.109	47.45
2.116	47.76
2.123	47.48
2.13	47.48
2.137	47.53
2.144	47.21
2.151	47.3
2.158	46.89
2.165	46.55
2.173	47.52
2.18	47.03
2.187	47.71
2.195	47.62
2.202	47.78
2.21	47.37
2.217	47.95
2.225	48.15
2.232	47.48
2.24	47.35
2.248	46.76
2.256	45.36
2.264	44.41
2.272	43.72
2.28	42.9
2.288	41.75
2.296	41.37
2.304	40.52
2.312	40.26
2.32	39.73
2.329	39.44
2.337	38.29
2.346	38.76
2.354	39.66
2.363	42.03
2.371	43.1
2.38	44.04
2.389	44.38
2.398	43.95
2.406	43.6
2.415	43.32
2.424	42.35
2.434	41.82
2.443	40.56
2.452	39.44
2.461	38.22
2.471	37.01
2.48	35.69
2.49	34.99
2.499	34.48
2.509	34.29
2.519	34
2.528	32.69
2.538	32.59
2.548	34.1
2.558	36.9
2.569	39.18
2.579	39.67
2.589	40.54
2.599	41.12
2.61	41.24
2.62	41.14
2.631	40.92
2.642	40.82
2.653	40.04
2.664	39.3
2.675	37.93
2.686	36.02
2.697	30.73
2.708	27.33
2.719	25.77
2.731	22.13
2.742	19.23
2.754	16.62
2.766	14.67
2.778	13.43
2.79	11.74
2.802	10.64
2.814	10.01
2.826	9.29
2.838	8.51
2.851	8.14
2.864	7.82
2.876	7.43
2.889	7.15
2.902	6.91
2.915	6.92
2.928	6.78
2.942	6.72
2.955	6.77
2.968	6.71
2.982	6.69
2.996	6.62
3.01	6.68
3.024	6.6
3.038	6.63
3.052	6.79
3.067	6.85
3.081	7.18
3.096	7.28
3.111	7.51
3.126	7.64
3.141	8.01
3.156	8.21
3.172	8.66
3.187	9.01
3.203	9.12
3.219	9.32
3.235	9.56
3.251	9.71
3.268	10.05
3.284	10.34
3.301	10.5
3.318	10.46
3.335	9.4
3.352	6.93
3.37	7.2
3.387	7.08
3.405	7.05
3.423	7.16
3.441	7.4
3.46	7.29
3.478	5.87
3.497	7.08
3.516	8.64
3.535	11.53
3.554	12.75
3.574	13.3
3.594	14.26
3.614	14.89
3.634	15.33
3.655	15.61
3.675	15.95
3.696	16.24
3.717	16.55
3.739	16.55
3.761	16.59
3.782	16.12
3.805	13.62
3.827	11.2
3.85	9.83
3.873	9.55
3.896	9.34
3.92	8.84
3.944	7.07
3.968	4.88
3.992	5.53
4.017	9.88
4.042	13.69
4.067	16.43
4.093	18.09
4.119	19.3
4.145	20.34
4.172	21.12
4.199	21.6
4.226	21.91
4.254	21.8
4.282	22.09
4.311	21.91
4.34	21.92
4.369	22.33
4.398	22.2
4.428	21.72
4.459	20.98
4.49	20.03
4.521	19.58
4.553	19.34
4.585	18.94
4.618	18.19
4.651	15.64
4.684	15.45
4.719	18.45
4.753	19.86
4.788	20.3
4.824	20.29
4.86	20.32
4.897	20.2
4.934	20.11
4.972	20.24
5.01	20.28
5.049	20.15
5.089	18.13
5.129	19.51
5.17	19.11
5.212	18.55
5.254	17.75
5.297	16.77
5.341	15.54
5.385	14.18
5.43	12.4
5.476	10.13
5.523	6.79
5.57	2.42
5.618	6.33
5.667	6
5.717	4.72
5.768	4.02
5.82	3.59
5.873	3.17
5.926	2.44
5.981	2.02
6.037	1.84
6.094	1.95
6.151	2.26
6.21	2.68
6.27	3.31
6.332	4.7
6.394	7.52
6.458	10.02
6.523	9.68
6.589	8.66
6.657	7.79
6.726	7.12
6.796	6.67
6.868	6.37
6.942	6.35
7.017	6.51
7.094	6.47
7.172	5.07
7.252	4.97
7.334	5.83
7.418	6.5
7.504	6.91
7.592	6.98
7.682	7.76
7.774	7.99
7.869	8.06
7.965	8.06
8.064	7.8
8.166	7.99
8.27	7.64
8.377	6.88
8.487	5.64
8.599	5.12
8.715	5.32
8.834	5.74
8.956	5.65
9.081	5.36
9.21	4.92
9.343	4.88
9.479	4.79
9.62	4.56
9.765	4.42
9.914	4.55
10.068	4.96
10.227	5.75
10.391	6.25
10.56	6.46
10.735	6.66
10.916	7.05
11.103	8.11
11.297	7.25
11.497	4.76
11.704	5.9
11.92	6.17
12.143	5.78
12.375	5.17
12.616	5.03
12.866	4.58
13.126	4.58
13.398	4.25
13.68	3.47
13.975	1.86
