Name: Basalt
Type: Rock
Class: Igneous
Subclass: Mafic
Particle Size: Whole rock chips
Sample No.: ba4b2c
Owner: Larry Rowan, USGS
Origin: Tel Jeiza, Jordan
Description: medium grained, dark gray basalt
Measurement: Reflectance
X Units: Wavelength (micrometers)
Y Units: Reflectance (percent)
wavelength	value
0.4	19.4
0.408	19.3
0.416	19.4
0.424	19.1
0.432	18.9
0.44	18.4
0.448	18.4
0.456	17.7
0.464	17.2
0.472	17.1
0.48	16.8
0.488	16.6
0.496	16.7
0.504	16.5
0.512	16.5
0.52	16.3
0.528	16.5
0.536	16.2
0.544	16.5
0.552	16.3
0.56	16.9
0.568	16.8
0.576	16.8
0.584	16.6
0.592	16.7
0.6	16.7
0.608	16.7
0.616	16.3
0.624	16.6
0.632	16.6
0.64	16.6
0.648	16.3
0.656	16.5
0.664	16.2
0.672	16.3
0.68	16.2
0.688	16.2
0.696	15.9
0.704	16.2
0.712	16.2
0.72	16
0.728	16.3
0.736	16.2
0.744	16
0.752	16.1
0.76	15.9
0.768	15.9
0.776	16
0.784	15.9
0.792	15.7
0.8	16
0.832	15.8
0.864	15.8
0.896	15.8
0.928	15.4
0.96	15
0.992	14.7
1.024	14.4
1.056	14.4
1.088	14.3
1.12	14.4
1.152	14.3
1.184	14
1.216	13.9
1.248	13.9
1.28	13.6
1.312	13.7
1.344	13.7
1.376	13.4
1.408	13.6
1.44	13.6
1.472	13.7
1.504	13.4
1.536	13.7
1.568	13.6
1.6	13.6
1.632	13.6
1.664	13.6
1.696	13.3
1.728	13.4
1.76	12.9
1.792	13.1
1.824	12.9
1.856	12.6
1.888	12.2
1.92	12.2
1.952	12
1.984	12.2
2.016	12.3
2.048	12.3
2.08	12.2
2.102	13.2
2.109	13.29
2.116	13.27
2.123	13.41
2.13	13.23
2.137	13.08
2.144	13.47
2.151	12.85
2.158	13.04
2.165	12.88
2.173	12.84
2.18	13.06
2.187	12.83
2.195	12.77
2.202	12.64
2.21	12.83
2.217	12.63
2.225	12.74
2.232	12.79
2.24	12.73
2.248	12.51
2.256	12.65
2.264	12.66
2.272	12.51
2.28	12.5
2.288	12.68
2.296	12.44
2.304	12.47
2.312	12.43
2.32	12.26
2.329	12.43
2.337	12.35
2.346	12.23
2.354	12.21
2.363	12.31
2.371	12.17
2.38	12.23
2.389	12.16
2.398	12.14
2.406	12.11
2.415	12.24
2.424	11.9
2.434	12.11
2.443	12.03
2.452	11.99
2.461	11.87
2.471	11.88
2.48	11.83
2.49	11.74
2.499	11.84
2.509	11.76
2.519	11.7
2.528	11.63
2.538	11.54
2.548	11.8
2.558	11.51
2.569	11.71
2.579	11.73
2.589	11.65
2.599	11.54
2.61	11.66
2.62	11.61
2.631	11.65
2.642	11.45
2.653	11.51
2.664	11.1
2.675	10.85
2.686	9.81
2.697	8.77
2.708	8.05
2.719	8.21
2.731	7.88
2.742	7.48
2.754	7.42
2.766	7.46
2.778	7.2
2.79	7.27
2.802	7.13
2.814	7.11
2.826	7.35
2.838	7.22
2.851	7.32
2.864	7.07
2.876	7.3
2.889	7.09
2.902	7.11
2.915	6.98
2.928	7.15
2.942	7.11
2.955	7.01
2.968	7.08
2.982	6.97
2.996	6.93
3.01	7.22
3.024	7.04
3.038	7.2
3.052	7.1
3.067	6.96
3.081	6.99
3.096	6.97
3.111	7.01
3.126	7.15
3.141	7.08
3.156	7.25
3.172	7.15
3.187	7.3
3.203	7.24
3.219	7.28
3.235	7.45
3.251	7.46
3.268	7.59
3.284	7.59
3.301	7.69
3.318	7.72
3.335	7.69
3.352	7.9
3.37	7.97
3.387	8.04
3.405	8.03
3.423	8.24
3.441	8.25
3.46	8.3
3.478	8.3
3.497	8.35
3.516	8.56
3.535	8.61
3.554	8.73
3.574	8.72
3.594	8.86
3.614	8.91
3.634	8.94
3.655	9.09
3.675	9.02
3.696	9.04
3.717	9.1
3.739	9.16
3.761	9.17
3.782	9.12
3.805	8.96
3.827	8.85
3.85	8.73
3.873	8.81
3.896	8.71
3.92	8.73
3.944	8.61
3.968	8.4
3.992	8.38
4.017	8.34
4.042	8.44
4.067	8.52
4.093	8.5
4.119	8.44
4.145	8.33
4.172	8.29
4.199	8.21
4.226	8.18
4.254	7.97
4.282	8
4.311	7.8
4.34	7.67
4.369	7.49
4.398	7.46
4.428	7.4
4.459	7.2
4.49	7
4.521	6.88
4.553	6.76
4.585	6.61
4.618	6.48
4.651	6.3
4.684	6.14
4.719	6.1
4.753	6.02
4.788	5.83
4.824	5.73
4.86	5.66
4.897	5.56
4.934	5.41
4.972	5.37
5.01	5.27
5.049	5.14
5.089	5.04
5.129	4.93
5.17	4.88
5.212	4.85
5.254	4.71
5.297	4.65
5.341	4.61
5.385	4.49
5.43	4.43
5.476	4.35
5.523	4.23
5.57	4.15
5.618	4.11
5.667	4.13
5.717	3.97
5.768	3.95
5.82	3.87
5.873	3.81
5.926	3.69
5.981	3.52
6.037	3.5
6.094	3.36
6.151	3.4
6.21	3.51
6.27	3.56
6.332	3.71
6.394	3.82
6.458	4.2
6.523	4.25
6.589	4.1
6.657	3.91
6.726	3.8
6.796	3.69
6.868	3.62
6.942	3.53
7.017	3.54
7.094	3.34
7.172	3.02
7.252	2.84
7.334	2.65
7.418	2.52
7.504	2.46
7.592	2.28
7.682	2.15
7.774	2.05
7.869	1.98
7.965	1.96
8.064	2.1
8.166	2.55
8.27	4.06
8.377	5.4
8.487	6.21
8.599	7.1
8.715	8.17
8.834	9.45
8.956	10.96
9.081	11.34
9.21	10.95
9.343	11.52
9.479	11.92
9.62	12.13
9.765	11.94
9.914	11.78
10.068	11.3
10.227	11.27
10.391	11.28
10.56	10.93
10.735	11.4
10.916	11.43
11.103	10.69
11.297	10.04
11.497	8.67
11.704	7.35
11.92	6.34
12.143	5.57
12.375	4.85
12.616	4.39
12.866	4.06
13.126	3.93
13.398	3.93
13.68	3.74
13.975	3.58
