Name: Basalt
Type: Rock
Class: Igneous
Subclass: Mafic
Particle Size: Whole rock chips
Sample No.: ba14d1f
Owner: Larry Rowan, USGS
Origin: Kerak (near Samra), Jordan
Description: dark gray vesicular basalt
Measurement: Reflectance
X Units: Wavelength (micrometers)
Y Units: Reflectance (percent)
wavelength	value
0.4	10.7
0.408	10.5
0.416	10.5
0.424	10.1
0.432	9.7
0.44	9.7
0.448	9.4
0.456	8.7
0.464	8.6
0.472	8.5
0.48	8.2
0.488	8.2
0.496	8.2
0.504	8
0.512	7.9
0.52	7.9
0.528	7.9
0.536	7.8
0.544	7.8
0.552	7.8
0.56	7.8
0.568	7.9
0.576	8
0.584	8
0.592	7.9
0.6	7.9
0.608	7.9
0.616	8
0.624	7.9
0.632	8
0.64	8.2
0.648	7.9
0.656	8
0.664	8
0.672	8
0.68	7.9
0.688	8.2
0.696	8.2
0.704	8.2
0.712	8
0.72	8.2
0.728	8.3
0.736	8.3
0.744	8.5
0.752	8.5
0.76	8.5
0.768	8.5
0.776	8.6
0.784	8.6
0.792	8.6
0.8	8.9
0.832	8.9
0.864	8.8
0.896	9
0.928	8.9
0.96	8.8
0.992	8.8
1.024	8.7
1.056	8.7
1.088	8.7
1.12	8.8
1.152	8.8
1.184	8.9
1.216	8.8
1.248	8.8
1.28	8.5
1.312	8.7
1.344	8.7
1.376	8.7
1.408	8.8
1.44	8.9
1.472	8.9
1.504	9.2
1.536	9
1.568	9.3
1.6	9.2
1.632	9.2
1.664	9.3
1.696	9.4
1.728	9.4
1.76	9.2
1.792	9.3
1.824	9.2
1.856	9.2
1.888	8.9
1.92	8.7
1.952	8.5
1.984	8.8
2.016	8.8
2.048	8.9
2.08	8.9
2.102	9.87
2.109	9.87
2.116	9.91
2.123	10.04
2.13	9.69
2.137	9.86
2.144	9.99
2.151	9.82
2.158	9.68
2.165	9.65
2.173	9.77
2.18	9.49
2.187	9.55
2.195	9.7
2.202	9.54
2.21	9.7
2.217	9.51
2.225	9.34
2.232	9.6
2.24	9.56
2.248	9.57
2.256	9.51
2.264	9.59
2.272	9.64
2.28	9.52
2.288	9.34
2.296	9.58
2.304	9.5
2.312	9.4
2.32	9.55
2.329	9.44
2.337	9.41
2.346	9.4
2.354	9.37
2.363	9.55
2.371	9.34
2.38	9.35
2.389	9.29
2.398	9.2
2.406	9.46
2.415	9.21
2.424	9.43
2.434	9.3
2.443	9.29
2.452	9.29
2.461	9.36
2.471	9.3
2.48	9.27
2.49	9.18
2.499	9.41
2.509	9.18
2.519	9.17
2.528	9.07
2.538	9.03
2.548	9.11
2.558	9.24
2.569	9.19
2.579	9.25
2.589	9.32
2.599	9.42
2.61	9.36
2.62	9.02
2.631	9.37
2.642	9.18
2.653	8.99
2.664	8.79
2.675	8.85
2.686	8.25
2.697	7.37
2.708	6.76
2.719	6.71
2.731	6.19
2.742	6.09
2.754	5.68
2.766	5.61
2.778	5.7
2.79	5.91
2.802	5.71
2.814	5.6
2.826	5.66
2.838	5.57
2.851	5.75
2.864	5.68
2.876	5.58
2.889	5.57
2.902	5.63
2.915	5.67
2.928	5.56
2.942	5.69
2.955	5.7
2.968	5.59
2.982	5.61
2.996	5.68
3.01	5.75
3.024	5.72
3.038	5.68
3.052	5.8
3.067	5.7
3.081	5.75
3.096	5.85
3.111	5.79
3.126	5.97
3.141	6.02
3.156	6.13
3.172	6.16
3.187	6.25
3.203	6.29
3.219	6.38
3.235	6.46
3.251	6.48
3.268	6.68
3.284	6.62
3.301	6.73
3.318	6.74
3.335	6.77
3.352	6.66
3.37	6.71
3.387	6.8
3.405	6.76
3.423	6.94
3.441	7.05
3.46	7.04
3.478	6.81
3.497	7
3.516	7.2
3.535	7.4
3.554	7.48
3.574	7.63
3.594	7.71
3.614	7.76
3.634	7.79
3.655	7.85
3.675	7.85
3.696	7.85
3.717	7.99
3.739	7.95
3.761	7.93
3.782	7.83
3.805	7.69
3.827	7.55
3.85	7.47
3.873	7.49
3.896	7.41
3.92	7.35
3.944	7.3
3.968	7.1
3.992	7.19
4.017	7.39
4.042	7.68
4.067	7.71
4.093	7.86
4.119	7.73
4.145	7.75
4.172	7.84
4.199	7.71
4.226	7.46
4.254	7.64
4.282	7.44
4.311	7.41
4.34	7.43
4.369	7.4
4.398	7.32
4.428	7.21
4.459	7.11
4.49	7
4.521	6.82
4.553	6.69
4.585	6.59
4.618	6.34
4.651	6.19
4.684	5.98
4.719	5.96
4.753	5.79
4.788	5.7
4.824	5.59
4.86	5.51
4.897	5.33
4.934	5.26
4.972	5.17
5.01	5.05
5.049	4.96
5.089	4.81
5.129	4.76
5.17	4.7
5.212	4.57
5.254	4.5
5.297	4.41
5.341	4.36
5.385	4.25
5.43	4.15
5.476	4.03
5.523	3.87
5.57	3.7
5.618	3.76
5.667	3.76
5.717	3.66
5.768	3.57
5.82	3.46
5.873	3.37
5.926	3.26
5.981	3.08
6.037	3.02
6.094	2.96
6.151	3.05
6.21	3.15
6.27	3.28
6.332	3.58
6.394	4.45
6.458	6.02
6.523	6.1
6.589	5.96
6.657	5.68
6.726	5.38
6.796	5.2
6.868	4.99
6.942	4.92
7.017	4.88
7.094	4.51
7.172	3.83
7.252	3.4
7.334	3.25
7.418	3.12
7.504	3.05
7.592	2.9
7.682	2.86
7.774	2.69
7.869	2.66
7.965	2.72
8.064	2.86
8.166	3.54
8.27	5.07
8.377	6.49
8.487	7.02
8.599	7.57
8.715	8.25
8.834	9.08
8.956	9.89
9.081	10
9.21	9.79
9.343	10.7
9.479	11.48
9.62	11.8
9.765	11.79
9.914	11.71
10.068	11.25
10.227	11.18
10.391	11.4
10.56	11.41
10.735	11.53
10.916	11.31
11.103	10.58
11.297	10.96
11.497	8.91
11.704	7.46
11.92	6.52
12.143	5.81
12.375	4.91
12.616	4.5
12.866	4.26
13.126	4.06
13.398	4.13
13.68	3.99
13.975	3.97
