Name: Bassanite 2CaSO4 * H2O
Type: Mineral
Class: Sulfate
Subclass: None
Particle Size: Unsieved coarse powder
Sample No.: None
Owner: USGS
Origin: Dehydration of gypsum at 60 deg. C
Description: Synthetic Bassanite
Measurement: Directional Hemispherical Reflectance
X Units: Wavelength (micrometers)
Y Units: Reflectance (percent)
wavelength	value
0.4	69.4319
0.414	70.0908
0.428	70.7696
0.442	71.4635
0.456	72.1949
0.47	72.8488
0.484	73.4823
0.498	74.0784
0.512	74.5969
0.526	75.0793
0.54	75.5747
0.554	75.9767
0.568	76.3595
0.582	76.6986
0.596	77.0044
0.61	77.2691
0.624	77.4574
0.638	77.6963
0.652	77.8051
0.666	77.9293
0.68	77.9883
0.694	78.0654
0.708	78.1293
0.722	78.1313
0.736	78.1632
0.75	78.1362
0.764	78.175
0.778	78.2436
0.792	78.2743
0.806	78.3426
0.82	78.3238
0.834	78.283
0.848	78.2301
0.862	78.3581
0.876	78.6415
0.89	78.2134
0.904	78.4972
0.918	78.3118
0.932	78.4398
0.946	77.9808
0.96	77.6601
0.974	77.1536
0.988	77.2655
1.002	77.7798
1.016	77.8163
1.03	78.2041
1.044	78.4
1.058	78.5021
1.072	78.4094
1.086	78.1958
1.1	78.1368
1.114	77.9103
1.128	77.8859
1.142	77.4428
1.156	76.1751
1.17	74.2752
1.184	75.2704
1.198	76.0353
1.212	76.1082
1.226	76.6386
1.24	76.5707
1.254	77.0173
1.268	76.9651
1.282	76.5876
1.296	76.5746
1.31	76.1238
1.324	75.2918
1.338	73.8891
1.352	72.8057
1.366	72.5207
1.38	71.3799
1.394	68.1304
1.408	64.6549
1.422	60.6706
1.436	58.723
1.45	59.5906
1.464	63.3531
1.478	63.0735
1.492	65.035
1.506	66.9355
1.52	68.5825
1.534	68.9378
1.548	69.2679
1.562	70.5217
1.576	71.4094
1.59	72.0065
1.604	72.5069
1.618	72.8461
1.632	73.1632
1.646	73.3805
1.66	73.5837
1.674	73.2316
1.688	72.9201
1.702	72.3017
1.716	71.2541
1.73	69.6957
1.744	67.4874
1.758	66.0785
1.772	65.5235
1.786	65.3243
1.8	66.3684
1.814	67.1885
1.828	67.3961
1.842	66.7362
1.856	65.6324
1.87	63.5235
1.884	59.0798
1.898	52.4963
1.912	41.2723
1.926	31.3769
1.94	36.2055
1.954	39.4546
1.968	44.564
1.982	47.608
1.996	51.0923
2.01	56.2764
2.024	58.9707
2.038	60.4777
2.052	61.1884
2.066	61.2597
2.08	61.0294
2.094	60.4449
2.108	59.6112
2.122	59.4597
2.136	59.4544
2.15	59.4227
2.164	58.6755
2.178	57.9372
2.192	57.1523
2.206	56.4448
2.22	55.5608
2.234	55.4848
2.248	55.4761
2.262	54.9972
2.276	54.8421
2.29	55.1767
2.304	55.3524
2.318	55.2426
2.332	54.6871
2.346	53.6256
2.36	51.7457
2.374	49.5799
2.388	46.9559
2.402	43.4831
2.416	39.6402
2.43	37.0407
2.444	34.948
2.458	33.0859
2.472	31.8683
2.486	31.0083
2.5	30.9
2.509	31.6107
2.517	32.5377
2.526	33.0424
2.535	33.372
2.543	33.578
2.552	33.6398
2.561	32.6613
2.57	33.8458
2.579	34.2063
2.588	32.9188
2.597	33.063
2.606	31.4768
2.615	30.9515
2.624	30.7764
2.634	29.4168
2.643	28.5516
2.653	26.2444
2.662	24.4728
2.672	21.9596
2.681	20.1777
2.691	17.5512
2.701	13.9874
2.711	10.6296
2.721	7.931
2.731	5.9122
2.741	3.5947
2.751	2.1733
2.761	1.6274
2.772	1.5965
2.782	2.0085
2.793	2.2557
2.803	1.8746
2.814	1.9673
2.825	2.2866
2.835	2.5544
2.846	2.9046
2.857	2.8943
2.868	2.9561
2.879	3.4402
2.891	3.6668
2.902	3.605
2.913	3.6462
2.925	3.8625
2.937	3.8625
2.948	4.017
2.96	4.326
2.972	4.7483
2.984	4.9646
2.996	5.2736
3.008	5.5002
3.02	5.8607
3.033	6.3654
3.045	6.5508
3.058	6.9422
3.07	7.1276
3.083	7.0761
3.096	7.7662
3.109	8.3224
3.122	8.9713
3.135	10.1661
3.149	11.4433
3.162	12.9471
3.176	14.2861
3.189	15.5015
3.203	16.5212
3.217	17.6336
3.231	18.7872
3.245	19.8996
3.259	21.0017
3.274	22.0935
3.288	23.3913
3.303	24.3389
3.318	25.1423
3.333	25.647
3.348	26.1208
3.363	26.0693
3.378	25.5337
3.394	26.7182
3.409	26.5637
3.425	28.1705
3.441	30.1687
3.457	31.6828
3.473	31.8682
3.49	32.6716
3.506	33.9076
3.523	36.462
3.54	38.0894
3.557	39.6035
3.574	40.7674
3.591	41.612
3.609	42.2712
3.626	42.8789
3.644	43.363
3.662	44.0016
3.68	44.6299
3.699	45.4848
3.717	46.1955
3.736	46.6075
3.755	46.6899
3.774	45.938
3.794	45.0213
3.813	45.6908
3.833	46.5045
3.853	46.5251
3.873	45.938
3.893	45.8762
3.914	45.1037
3.935	44.6402
3.956	43.3115
3.977	42.7347
3.998	42.4051
4.02	42.1579
4.042	41.9313
4.064	41.1794
4.086	39.861
4.109	38.2748
4.132	36.3796
4.155	34.4844
4.179	32.2699
4.202	29.5713
4.226	26.8418
4.251	23.5561
4.275	21.0944
4.3	19.2919
4.325	17.613
4.35	16.2328
4.376	15.2646
4.402	14.42
4.428	13.5754
4.455	12.5969
4.482	11.3403
4.509	11.0725
4.537	11.5566
4.565	12.7823
4.593	13.4003
4.622	12.7823
4.651	11.7111
4.68	10.9901
4.71	11.4948
4.74	12.3806
4.771	13.6372
4.802	16.9538
4.833	20.3219
4.865	21.6609
4.897	22.1965
4.929	22.5055
4.962	22.0008
4.996	24.6273
5.03	26.2753
5.064	27.4083
5.099	28.3456
5.134	28.9121
5.17	29.7052
5.206	29.7979
5.243	30.3232
5.281	29.9627
5.319	29.5919
5.357	28.6031
5.396	27.192
5.436	25.1217
5.476	23.69
5.517	23.1441
5.558	21.6918
5.6	20.2807
5.643	19.0138
5.686	17.9323
5.73	14.4612
5.775	11.9789
5.82	10.3824
5.866	8.5799
5.913	4.7071
5.96	4.7174
6.009	5.15
6.058	3.5844
6.108	1.7201
6.159	1.3493
6.21	2.472
6.263	4.4496
6.316	6.0564
6.37	6.9731
6.426	7.519
6.482	7.416
6.539	8.6314
6.597	9.2185
6.657	9.4451
6.717	8.5696
6.778	7.6323
6.841	7.2615
6.905	6.6641
6.97	6.2109
7.036	5.6856
7.103	5.3869
7.172	4.8719
7.242	4.2951
7.314	3.7286
7.387	3.1106
7.461	2.6059
7.537	2.1424
7.614	1.7201
7.694	1.2978
7.774	1.0197
7.857	0.8858
7.941	1.0609
8.027	1.5141
8.115	2.8222
8.205	4.6659
8.297	6.2624
8.391	8.3636
8.487	9.2906
8.585	9.064
8.686	8.4048
8.789	5.9946
8.894	5.5723
9.002	4.9646
9.113	4.7586
9.226	5.0779
9.343	5.6444
9.462	6.0564
9.585	6.2933
9.71	6.1903
9.839	4.1818
9.972	5.1397
10.108	6.1285
10.247	6.3345
10.391	6.3757
10.539	6.4375
10.691	6.3963
10.848	6.3963
11.009	6.1594
11.175	5.9946
11.346	5.7783
11.522	5.5105
11.704	5.4693
11.892	5.3045
12.086	5.1397
12.287	4.7895
12.494	4.7792
12.708	4.5011
12.93	4.2642
13.16	3.9552
13.398	3.5638
13.644	3.2033
13.9	2.6883
