Name: Limestone CaCO3
Type: Rock
Class: Sedimentary
Subclass: Limestone
Particle Size: Whole rock chips
Sample No.: ro354
Owner: Larry Rowan, USGS
Origin: Ronda, Spain
Description: white limestone
Measurement: Reflectance
X Units: Wavelength (micrometers)
Y Units: Reflectance (percent)
wavelength	value
0.4	55.025
0.408	55.75
0.416	56.225
0.424	56.925
0.432	57.825
0.44	58.775
0.448	58.8
0.456	59.625
0.464	59.65
0.472	59.85
0.48	60.075
0.488	60.15
0.496	61.05
0.504	61.275
0.512	61.525
0.52	62.475
0.528	62.4
0.536	62.5
0.544	62.65
0.552	62.85
0.56	63.45
0.568	63.7
0.576	64.625
0.584	64.45
0.592	64.45
0.6	64.175
0.608	64.3
0.616	63.825
0.624	64.6
0.632	64.775
0.64	64.45
0.648	64.225
0.656	64.85
0.664	64.55
0.672	64.25
0.68	64.975
0.688	64.825
0.696	65.275
0.704	65.175
0.712	65.2
0.72	65.475
0.728	65.675
0.736	65.75
0.744	65.35
0.752	65.65
0.76	65.525
0.768	65.725
0.776	65.55
0.784	65.35
0.792	65.8
0.8	65.6
0.832	65.575
0.864	65.65
0.896	65.9
0.928	65.675
0.96	65.875
0.992	66.1
1.024	66.5
1.056	67
1.088	67.3
1.12	67.75
1.152	67.875
1.184	68.3
1.216	68.375
1.248	68.525
1.28	68.675
1.312	68.55
1.344	68.125
1.376	66.225
1.408	61.425
1.44	60.525
1.472	61.3
1.504	63.375
1.536	64.625
1.568	65.65
1.6	65.875
1.632	66.05
1.664	65.8
1.696	64.925
1.728	63.725
1.76	63.975
1.792	63.6
1.824	61.25
1.856	55.375
1.888	50.1
1.92	45.45
1.952	45.225
1.984	45.95
2.016	52.125
2.048	55.65
2.08	56.35
2.102	57.0425
2.109	56.54
2.116	56.7025
2.123	56.2075
2.13	55.6725
2.137	54.7575
2.144	52.29
2.151	51.0525
2.158	50.9925
2.165	51.3325
2.173	52.9575
2.18	53.6075
2.187	54.06
2.195	54.0125
2.202	53.3525
2.21	52.04
2.217	51.115
2.225	49.8725
2.232	47.86
2.24	46.185
2.248	44.145
2.256	42.04
2.264	39.465
2.272	37.475
2.28	34.4525
2.288	32.115
2.296	30.3575
2.304	29.4625
2.312	28.525
2.32	27.2325
2.329	25.6125
2.337	24.405
2.346	24.98
2.354	27.865
2.363	33.39
2.371	38.2325
2.38	41.7825
2.389	42.875
2.398	42.1675
2.406	41.825
2.415	41.03
2.424	38.88
2.434	36.55
2.443	34.0275
2.452	31.67
2.461	28.79
2.471	25.8675
2.48	23.315
2.49	21.945
2.499	21.3625
2.509	20.8225
2.519	19.7225
2.528	17.795
2.538	17.4225
2.548	19.905
2.558	25.2825
2.569	29.7525
2.579	32.4125
2.589	34.5675
2.599	36.6475
2.61	37.445
2.62	37.6825
2.631	37.42
2.642	36.9075
2.653	35.8975
2.664	34.49
2.675	32.3975
2.686	29.59
2.697	25.66
2.708	21.4625
2.719	16.3025
2.731	15.5525
2.742	14.02
2.754	12.9325
2.766	11.905
2.778	10.835
2.79	10.2525
2.802	10.2825
2.814	10.1775
2.826	9.855
2.838	9.5725
2.851	9.325
2.864	8.9775
2.876	8.805
2.889	8.6125
2.902	8.385
2.915	8.3325
2.928	8.205
2.942	8.1325
2.955	8.145
2.968	8.1775
2.982	8.145
2.996	8.23
3.01	8.3375
3.024	8.385
3.038	8.405
3.052	8.39
3.067	8.465
3.081	8.4825
3.096	8.505
3.111	8.5075
3.126	8.83
3.141	8.985
3.156	9.195
3.172	9.6575
3.187	9.98
3.203	10.1675
3.219	10.2775
3.235	10.315
3.251	10.2675
3.268	10.1575
3.284	9.8875
3.301	9.2075
3.318	8.61
3.335	7.0475
3.352	5.77
3.37	5.865
3.387	5.81
3.405	5.695
3.423	5.6375
3.441	5.7675
3.46	5.6175
3.478	5.205
3.497	5.5625
3.516	6.265
3.535	8.01
3.554	9.285
3.574	9.71
3.594	11.4175
3.614	12.41
3.634	12.9925
3.655	13.3875
3.675	13.59
3.696	13.4325
3.717	13.0275
3.739	12.0925
3.761	11.1625
3.782	9.585
3.805	7.2
3.827	6.3825
3.85	5.9275
3.873	5.76
3.896	5.675
3.92	5.44
3.944	4.945
3.968	4.49
3.992	4.9075
4.017	5.8725
4.042	7.0575
4.067	8.1225
4.093	9
4.119	9.77
4.145	10.6375
4.172	11.215
4.199	11.6925
4.226	11.9375
4.254	11.99
4.282	12.1625
4.311	11.76
4.34	11.7525
4.369	12.375
4.398	12.0975
4.428	11.3475
4.459	10.4525
4.49	9.54
4.521	9.175
4.553	9.035
4.585	8.8
4.618	8.0825
4.651	6.81
4.684	6.8
4.719	8.355
4.753	9.6575
4.788	10.0375
4.824	9.97
4.86	9.7675
4.897	9.585
4.934	9.395
4.972	9.36
5.01	9.31
5.049	9.1875
5.089	7.3975
5.129	8.495
5.17	8.1575
5.212	7.68
5.254	7.1125
5.297	6.5425
5.341	5.87
5.385	5.2175
5.43	4.56
5.476	3.7775
5.523	3.055
5.57	2.5425
5.618	3.19
5.667	3
5.717	2.67
5.768	2.4975
5.82	2.475
5.873	2.36
5.926	2.1775
5.981	1.955
6.037	1.905
6.094	1.9
6.151	2.11
6.21	2.7525
6.27	4.315
6.332	8.2075
6.394	18.3875
6.458	34.7575
6.523	35.1
6.589	31.98
6.657	28.45
6.726	25.1475
6.796	22.52
6.868	20.7175
6.942	19.3225
7.017	19.09
7.094	17.5975
7.172	13.1225
7.252	10.7125
7.334	9.9775
7.418	9.3875
7.504	8.8825
7.592	8.5375
7.682	8.5775
7.774	8.42
7.869	8.2125
7.965	8.075
8.064	7.74
8.166	7.8175
8.27	7.5525
8.377	7.08
8.487	6.7975
8.599	6.6875
8.715	7.2675
8.834	7.6975
8.956	7.7525
9.081	7.6575
9.21	6.9825
9.343	7.49
9.479	7.415
9.62	7.2325
9.765	6.685
9.914	6.2475
10.068	6.305
10.227	6.615
10.391	6.9175
10.56	6.6875
10.735	7.01
10.916	8.1875
11.103	9.2025
11.297	15.895
11.497	7.3175
11.704	6.165
11.92	6.28
12.143	6.0075
12.375	5.6225
12.616	5.275
12.866	5.03
13.126	5.0525
13.398	4.9325
13.68	3.88
13.975	3.965
