Name: Meyerhofferite Ca2B6O6(OH)10 * H2O
Type: Mineral
Class: Borate
Subclass: None
Particle Size: Unsieved coarse powder
Sample No.: NMNH 96075-3
Owner: Smithsonian Institute, National Museum of Nat. History
Origin: Inyo County, CA
Description: Meyerhofferite from Inyo County, CA
Measurement: Directional Hemispherical Reflectance
X Units: Wavelength (micrometers)
Y Units: Reflectance (percent)
wavelength	value
0.4	45.312
0.414	45.8481
0.428	46.3999
0.442	46.9465
0.456	47.59
0.47	48.0874
0.484	48.6861
0.498	49.4435
0.512	50.0625
0.526	50.7496
0.54	51.439
0.554	52.139
0.568	52.8385
0.582	53.5544
0.596	54.261
0.61	54.9616
0.624	55.6499
0.638	56.2936
0.652	56.908
0.666	57.5083
0.68	58.0433
0.694	58.5885
0.708	59.0803
0.722	59.4992
0.736	59.8811
0.75	60.2171
0.764	60.6114
0.778	60.9427
0.792	61.2652
0.806	61.6057
0.82	61.9003
0.834	62.1033
0.848	62.3566
0.862	63.0388
0.876	62.9502
0.89	63.3392
0.904	63.0441
0.918	63.0297
0.932	63.2799
0.946	62.6358
0.96	61.6084
0.974	59.2333
0.988	61.2066
1.002	61.3248
1.016	61.1095
1.03	61.7442
1.044	62.2793
1.058	62.8955
1.072	63.3674
1.086	63.4358
1.1	63.4447
1.114	63.212
1.128	63.2975
1.142	62.9654
1.156	62.4762
1.17	62.3417
1.184	61.8687
1.198	61.3759
1.212	60.7457
1.226	59.6767
1.24	58.7192
1.254	57.7746
1.268	56.7971
1.282	56.0386
1.296	56.1848
1.31	55.4292
1.324	53.8258
1.338	53.0385
1.352	51.5448
1.366	51.6697
1.38	50.8488
1.394	45.8253
1.408	38.4653
1.422	26.2855
1.436	33.4663
1.45	32.4138
1.464	31.2321
1.478	30.1429
1.492	29.9115
1.506	30.3951
1.52	30.7259
1.534	30.8586
1.548	32.4246
1.562	34.2343
1.576	36.6363
1.59	38.92
1.604	40.1818
1.618	40.842
1.632	41.1589
1.646	41.0952
1.66	40.6281
1.674	40.3128
1.688	39.5501
1.702	38.8752
1.716	38.0403
1.73	37.4297
1.744	37.0888
1.758	36.84
1.772	36.4185
1.786	36.0953
1.8	36.3349
1.814	36.5009
1.828	36.9396
1.842	37.0616
1.856	37.004
1.87	36.7002
1.884	35.6094
1.898	32.8871
1.912	30.5339
1.926	30.4542
1.94	30.1354
1.954	29.1186
1.968	27.9576
1.982	27.2369
1.996	26.9047
2.01	26.9465
2.024	26.5725
2.038	25.4998
2.052	24.1679
2.066	22.4419
2.08	21.5393
2.094	21.83
2.108	20.6132
2.122	19.3038
2.136	16.7853
2.15	16.59
2.164	16.966
2.178	16.1845
2.192	14.4674
2.206	14.4628
2.22	15.8407
2.234	15.4744
2.248	14.2377
2.262	17.8997
2.276	20.9969
2.29	22.112
2.304	21.7874
2.318	21.3671
2.332	20.9786
2.346	19.9845
2.36	19.7768
2.374	19.2274
2.388	17.9922
2.402	16.0195
2.416	15.7957
2.43	15.6232
2.444	14.8234
2.458	15.6549
2.472	16.5588
2.486	16.7975
2.5	17.2319
2.509	17.2834
2.517	16.686
2.526	16.4182
2.535	16.4388
2.543	17.0259
2.552	17.098
2.561	16.583
2.57	16.9435
2.579	16.5109
2.588	15.7281
2.597	15.9856
2.606	15.553
2.615	15.2234
2.624	15.1204
2.634	13.9874
2.643	12.4218
2.653	12.0407
2.662	11.8965
2.672	10.1764
2.681	10.1249
2.691	9.2082
2.701	7.7353
2.711	6.4272
2.721	5.4899
2.731	4.6968
2.741	3.4196
2.751	2.8428
2.761	2.1733
2.772	1.9673
2.782	2.0188
2.793	1.8231
2.803	1.6583
2.814	1.4317
2.825	1.2566
2.835	1.0403
2.846	0.9991
2.857	0.9785
2.868	1.3184
2.879	1.3905
2.891	1.5656
2.902	1.9158
2.913	1.854
2.925	1.7201
2.937	1.5965
2.948	1.3493
2.96	1.6171
2.972	1.5244
2.984	1.3802
2.996	1.545
3.008	1.442
3.02	1.3596
3.033	1.5244
3.045	1.5244
3.058	1.5965
3.07	1.6274
3.083	1.6274
3.096	1.6377
3.109	1.5965
3.122	1.6892
3.135	1.6789
3.149	1.6995
3.162	1.7098
3.176	1.8025
3.189	1.7922
3.203	1.7819
3.217	1.7716
3.231	1.8128
3.245	1.7819
3.259	1.8334
3.274	1.9364
3.288	2.0291
3.303	2.1321
3.318	2.369
3.333	2.4514
3.348	2.678
3.363	2.6986
3.378	2.8531
3.394	2.9664
3.409	3.0488
3.425	3.2239
3.441	3.3475
3.457	3.4814
3.473	3.4196
3.49	3.502
3.506	3.5844
3.523	3.7595
3.54	3.9243
3.557	4.223
3.574	4.3157
3.591	4.4702
3.609	4.7174
3.626	5.0058
3.644	5.253
3.662	5.7062
3.68	6.0358
3.699	6.3551
3.717	6.6744
3.736	6.901
3.755	7.0143
3.774	7.1173
3.794	7.1997
3.813	7.1791
3.833	7.1688
3.853	7.107
3.873	7.0967
3.893	7.004
3.914	6.9834
3.935	6.695
3.956	6.4272
3.977	6.2315
3.998	6.283
4.02	6.2933
4.042	6.1182
4.064	5.9225
4.086	5.665
4.109	5.3045
4.132	5.1294
4.155	5.0264
4.179	4.9749
4.202	5.0573
4.226	5.3663
4.251	5.2736
4.275	5.3045
4.3	5.2427
4.325	4.9749
4.35	4.8513
4.376	4.6762
4.402	4.5835
4.428	4.4084
4.455	4.2539
4.482	4.2024
4.509	4.1406
4.537	4.0685
4.565	4.0376
4.593	4.0067
4.622	4.12
4.651	4.2951
4.68	4.3775
4.71	4.4084
4.74	4.4702
4.771	4.4702
4.802	4.3981
4.833	4.4084
4.865	4.3981
4.897	4.4187
4.929	4.4187
4.962	4.3878
4.996	4.3775
5.03	4.3775
5.064	4.3775
5.099	4.3672
5.134	4.3775
5.17	4.3981
5.206	4.2745
5.243	4.2333
5.281	4.1818
5.319	4.0891
5.357	3.9861
5.396	3.8522
5.436	3.6771
5.476	3.4299
5.517	3.3166
5.558	3.0591
5.6	2.9664
5.643	2.7604
5.686	2.6368
5.73	2.4514
5.775	2.3072
5.82	2.0497
5.866	1.8849
5.913	1.8643
5.96	1.6583
6.009	1.648
6.058	1.4626
6.108	1.3287
6.159	1.2669
6.21	1.3493
6.263	1.2257
6.316	1.1948
6.37	1.1124
6.426	1.0712
6.482	0.9991
6.539	1.0506
6.597	0.9682
6.657	0.9579
6.717	0.8549
6.778	0.9579
6.841	1.9158
6.905	1.957
6.97	1.1433
7.036	2.8943
7.103	2.9664
7.172	2.1836
7.242	2.4926
7.314	2.9355
7.387	2.4308
7.461	1.957
7.537	1.7819
7.614	1.6171
7.694	1.5038
7.774	1.3596
7.857	1.2051
7.941	1.1227
8.027	1.1227
8.115	1.339
8.205	1.4626
8.297	1.8231
8.391	2.1836
8.487	2.5132
8.585	3.4402
8.686	4.0067
8.789	3.6874
8.894	3.4505
9.002	4.3981
9.113	4.6144
9.226	3.7183
9.343	3.1415
9.462	3.811
9.585	5.253
9.71	4.8616
9.839	3.7183
9.972	2.5132
10.108	2.7707
10.247	3.9964
10.391	3.6462
10.539	3.3784
10.691	3.0179
10.848	2.5544
11.009	2.9149
11.175	2.7604
11.346	2.7913
11.522	2.4411
11.704	2.4514
11.892	2.5647
12.086	2.2042
12.287	2.4617
12.494	3.0179
12.708	2.8016
12.93	2.5647
13.16	2.163
13.398	2.1836
13.644	3.0179
13.9	2.678
