Name: Basalt
Type: Rock
Class: Igneous
Subclass: Mafic
Particle Size: Whole rock chips
Sample No.: ba14d2f
Owner: Larry Rowan, USGS
Origin: Kerak (near Samra), Jordan
Description: dark gray vesicular basalt
Measurement: Reflectance
X Units: Wavelength (micrometers)
Y Units: Reflectance (percent)
wavelength	value
0.4	8.97
0.408	8.97
0.416	8.97
0.424	8.47
0.432	8.47
0.44	8.27
0.448	8.07
0.456	7.67
0.464	7.17
0.472	7.17
0.48	6.67
0.488	6.77
0.496	6.77
0.504	6.67
0.512	6.67
0.52	6.57
0.528	6.77
0.536	6.77
0.544	6.77
0.552	6.77
0.56	6.97
0.568	6.97
0.576	7.17
0.584	7.27
0.592	6.97
0.6	7.07
0.608	7.27
0.616	7.27
0.624	7.37
0.632	7.37
0.64	7.37
0.648	7.37
0.656	7.17
0.664	7.67
0.672	7.77
0.68	7.67
0.688	7.37
0.696	7.37
0.704	7.67
0.712	7.77
0.72	7.77
0.728	8.07
0.736	8.17
0.744	8.07
0.752	8.17
0.76	7.87
0.768	8.17
0.776	8.17
0.784	8.07
0.792	8.37
0.8	8.57
0.832	8.57
0.864	8.87
0.896	8.87
0.928	8.57
0.96	8.47
0.992	8.37
1.024	8.37
1.056	8.27
1.088	8.37
1.12	8.57
1.152	8.57
1.184	8.77
1.216	8.77
1.248	8.57
1.28	8.87
1.312	8.87
1.344	9.07
1.376	8.97
1.408	9.17
1.44	9.37
1.472	9.37
1.5	9.87
1.532	9.87
1.564	10.07
1.596	10.17
1.628	10.17
1.66	10.17
1.692	10.47
1.724	10.27
1.756	10.17
1.788	10.27
1.82	10.07
1.852	10.07
1.884	9.47
1.916	8.87
1.948	9.07
1.98	9.17
2.012	9.37
2.044	9.47
2.076	9.67
2.101	9.34
2.108	9.44
2.115	9.54
2.122	9.7
2.129	9.87
2.136	9.25
2.143	9.4
2.15	9.59
2.157	9.6
2.164	9.38
2.172	9.49
2.179	9.44
2.186	9.44
2.194	9.33
2.201	9.36
2.209	9.29
2.216	9.43
2.224	9.41
2.231	9.21
2.239	9.44
2.247	9.21
2.255	9.35
2.263	9.05
2.271	9.29
2.279	9.24
2.287	9.18
2.295	9.41
2.303	9.31
2.311	9.18
2.319	9.09
2.328	9.37
2.336	8.94
2.344	9.37
2.353	9.09
2.362	9.18
2.37	9.37
2.379	9.33
2.388	9.08
2.396	9.02
2.405	9.23
2.414	9.2
2.423	8.97
2.432	9.09
2.442	9.09
2.451	9.15
2.46	8.82
2.469	9.03
2.479	8.97
2.488	9.2
2.498	9.18
2.508	9.08
2.517	9.09
2.527	8.96
2.537	8.97
2.547	8.87
2.557	9.06
2.567	9.07
2.577	9.07
2.588	9.04
2.598	8.93
2.609	9.14
2.619	8.97
2.63	8.87
2.64	8.91
2.651	8.9
2.662	8.79
2.673	8.51
2.684	8.26
2.695	7.12
2.707	6.26
2.718	6.37
2.729	5.91
2.741	5.44
2.753	5.27
2.764	5.2
2.776	5.26
2.788	5.21
2.8	5.28
2.812	5.32
2.825	5.31
2.837	5.32
2.849	5.39
2.862	5.24
2.875	5.12
2.887	5.2
2.9	5.46
2.913	5.1
2.927	5.15
2.94	5.32
2.953	5.32
2.967	5.22
2.98	5.31
2.994	5.35
3.008	5.48
3.022	5.55
3.036	5.58
3.051	5.56
3.065	5.5
3.079	5.47
3.094	5.53
3.109	5.67
3.124	5.6
3.139	5.76
3.154	5.8
3.17	5.93
3.185	6.05
3.201	6.06
3.217	6.07
3.233	6.31
3.249	6.34
3.266	6.36
3.282	6.52
3.299	6.57
3.316	6.61
3.333	6.63
3.35	6.64
3.367	6.79
3.385	6.89
3.403	6.94
3.421	7.08
3.439	7.05
3.457	7.03
3.476	7.01
3.494	7.2
3.513	7.24
3.533	7.3
3.552	7.41
3.571	7.5
3.591	7.51
3.611	7.6
3.632	7.59
3.652	7.73
3.673	7.75
3.694	7.72
3.715	7.7
3.736	7.7
3.758	7.78
3.78	7.78
3.802	7.76
3.824	7.59
3.847	7.54
3.87	7.47
3.893	7.56
3.917	7.49
3.941	7.44
3.965	7.31
3.989	7.33
4.014	7.54
4.039	7.63
4.064	7.7
4.09	7.67
4.116	7.68
4.142	7.69
4.169	7.68
4.196	7.61
4.223	7.62
4.251	7.51
4.279	7.51
4.307	7.42
4.336	7.33
4.365	7.17
4.395	7.17
4.425	7.12
4.455	7.01
4.486	6.89
4.517	6.76
4.549	6.58
4.581	6.43
4.614	6.28
4.647	6.14
4.68	5.96
4.714	5.91
4.749	5.76
4.784	5.63
4.819	5.52
4.856	5.4
4.892	5.34
4.929	5.19
4.967	5.16
5.005	4.99
5.044	4.91
5.084	4.74
5.124	4.68
5.165	4.63
5.206	4.49
5.249	4.45
5.291	4.34
5.335	4.28
5.379	4.2
5.424	4.08
5.47	3.99
5.517	3.92
5.564	3.74
5.612	3.73
5.661	3.69
5.711	3.64
5.762	3.57
5.813	3.5
5.866	3.36
5.92	3.37
5.974	3.19
6.03	3.08
6.086	3.04
6.144	3.1
6.203	3.2
6.263	3.28
6.324	3.45
6.386	3.76
6.45	4.43
6.515	4.43
6.581	4.4
6.648	4.18
6.717	4.05
6.787	4
6.859	3.87
6.932	3.81
7.007	3.77
7.084	3.57
7.162	3.15
7.242	2.85
7.324	2.73
7.408	2.56
7.493	2.43
7.581	2.38
7.671	2.27
7.763	2.16
7.857	2.15
7.953	2.16
8.052	2.38
8.153	2.89
8.257	4.6
8.364	6.28
8.473	6.97
8.585	7.56
8.7	8.16
8.819	8.88
8.94	9.51
9.065	9.64
9.194	9.4
9.326	10.32
9.462	11.4
9.602	12.08
9.747	12.05
9.895	11.92
10.049	11.42
10.207	11.16
10.37	11.27
10.539	11.07
10.713	11.18
10.893	11
11.079	10.35
11.272	10.16
11.471	8.65
11.678	7.28
11.892	6.24
12.115	5.58
12.345	4.67
12.585	4.25
12.834	4.07
13.093	3.9
13.363	3.81
13.644	3.79
13.938	3.8
