Name: Basalt
Type: Rock
Class: Igneous
Subclass: Mafic
Particle Size: Whole rock chips
Sample No.: ba9a2f
Owner: Larry Rowan, USGS
Origin: Wadi Salima, Jordan
Description: dark gray vesicular basalt
Measurement: Reflectance
X Units: Wavelength (micrometers)
Y Units: Reflectance (percent)
wavelength	value
0.4	10.8
0.408	10.7
0.416	10.9
0.424	10.7
0.432	10.5
0.44	10.4
0.448	10.4
0.456	9.7
0.464	9.8
0.472	9.7
0.48	9.7
0.488	9.6
0.496	9.6
0.504	9.6
0.512	9.7
0.52	9.6
0.528	9.6
0.536	9.4
0.544	9.6
0.552	9.7
0.56	9.7
0.568	9.7
0.576	10
0.584	9.8
0.592	10
0.6	9.8
0.608	10.1
0.616	10
0.624	10.2
0.632	10.1
0.64	10.1
0.648	10.2
0.656	10.2
0.664	10.2
0.672	10.2
0.68	10.4
0.688	10.5
0.696	10.2
0.704	10.7
0.712	10.7
0.72	10.7
0.728	10.8
0.736	10.8
0.744	10.8
0.752	10.8
0.76	10.9
0.768	11.1
0.776	11.1
0.784	10.9
0.792	11.3
0.8	11.6
0.832	11.4
0.864	11.4
0.896	11.5
0.928	11.4
0.96	11.1
0.992	11.2
1.024	11.1
1.056	11
1.088	11
1.12	10.9
1.152	10.6
1.184	10.6
1.216	10.6
1.248	10.4
1.28	10.1
1.312	10.1
1.344	10.3
1.376	9.9
1.408	9.5
1.44	9.5
1.472	9.5
1.504	9.6
1.536	9.9
1.568	9.6
1.6	9.6
1.632	9.5
1.664	9.5
1.696	9.5
1.728	9.3
1.76	9
1.792	9.2
1.824	9.2
1.856	9
1.888	8.5
1.92	8.2
1.952	8.2
1.984	8.5
2.016	8.7
2.048	8.8
2.08	8.8
2.102	8.99
2.109	9.02
2.116	8.82
2.123	8.64
2.13	9.02
2.137	9.1
2.144	8.82
2.151	8.91
2.158	8.67
2.165	8.64
2.173	8.87
2.18	8.59
2.187	8.8
2.195	8.46
2.202	8.58
2.21	8.28
2.217	8.61
2.225	8.65
2.232	8.64
2.24	8.94
2.248	8.7
2.256	8.68
2.264	8.64
2.272	8.9
2.28	8.72
2.288	8.52
2.296	8.64
2.304	8.42
2.312	8.42
2.32	8.34
2.329	8.5
2.337	8.42
2.346	8.38
2.354	8.47
2.363	8.27
2.371	8.53
2.38	8.38
2.389	8.25
2.398	8.23
2.406	8.01
2.415	8.22
2.424	7.98
2.434	7.89
2.443	7.75
2.452	7.99
2.461	7.7
2.471	8
2.48	7.67
2.49	7.75
2.499	7.68
2.509	7.61
2.519	7.55
2.528	7.6
2.538	7.31
2.548	7.28
2.558	7.42
2.569	6.82
2.579	7.22
2.589	7.06
2.599	7.14
2.61	6.91
2.62	6.48
2.631	6.41
2.642	6.72
2.653	6.29
2.664	5.75
2.675	5.61
2.686	5.12
2.697	4.45
2.708	3.78
2.719	2.92
2.731	3.55
2.742	3.3
2.754	2.92
2.766	3.04
2.778	3.21
2.79	3.05
2.802	2.96
2.814	2.95
2.826	2.99
2.838	3.1
2.851	3.05
2.864	2.96
2.876	3
2.889	3.06
2.902	2.99
2.915	3.12
2.928	3.01
2.942	3.04
2.955	3.05
2.968	3.1
2.982	3.1
2.996	3.02
3.01	3.28
3.024	3.24
3.038	3.2
3.052	3.2
3.067	3.26
3.081	3.39
3.096	3.44
3.111	3.49
3.126	3.37
3.141	3.51
3.156	3.55
3.172	3.56
3.187	3.61
3.203	3.76
3.219	3.81
3.235	3.88
3.251	4.02
3.268	3.99
3.284	4.09
3.301	4.22
3.318	4.27
3.335	4.41
3.352	4.36
3.37	4.51
3.387	4.64
3.405	4.91
3.423	4.94
3.441	4.88
3.46	5.11
3.478	5.15
3.497	5.25
3.516	5.33
3.535	5.52
3.554	5.52
3.574	5.65
3.594	5.83
3.614	5.97
3.634	6.01
3.655	6.12
3.675	6.2
3.696	6.22
3.717	6.24
3.739	6.38
3.761	6.5
3.782	6.55
3.805	6.56
3.827	6.48
3.85	6.49
3.873	6.47
3.896	6.45
3.92	6.48
3.944	6.42
3.968	6.31
3.992	6.36
4.017	6.43
4.042	6.51
4.067	6.59
4.093	6.52
4.119	6.51
4.145	6.55
4.172	6.63
4.199	6.42
4.226	5.84
4.254	6.14
4.282	5.94
4.311	6.14
4.34	6.25
4.369	6.31
4.398	6.27
4.428	6.26
4.459	6.16
4.49	6.15
4.521	6.13
4.553	6.08
4.585	5.97
4.618	5.96
4.651	5.87
4.684	5.85
4.719	5.81
4.753	5.77
4.788	5.77
4.824	5.75
4.86	5.7
4.897	5.65
4.934	5.65
4.972	5.54
5.01	5.54
5.049	5.49
5.089	5.49
5.129	5.41
5.17	5.47
5.212	5.29
5.254	5.42
5.297	5.33
5.341	5.21
5.385	5.31
5.43	5.15
5.476	4.89
5.523	4.96
5.57	4.58
5.618	4.85
5.667	4.61
5.717	4.41
5.768	4.11
5.82	3.54
5.873	3.17
5.926	2.93
5.981	2.73
6.037	2.47
6.094	2.83
6.151	2.84
6.21	3.28
6.27	3.65
6.332	3.69
6.394	3.76
6.458	3.89
6.523	3.75
6.589	3.5
6.657	3.77
6.726	3.79
6.796	3.85
6.868	3.68
6.942	3.77
7.017	3.72
7.094	3.93
7.172	3.75
7.252	3.76
7.334	3.65
7.418	3.82
7.504	3.65
7.592	3.53
7.682	3.36
7.774	3.31
7.869	3.17
7.965	2.98
8.064	2.76
8.166	2.6
8.27	2.37
8.377	2.17
8.487	2.21
8.599	2.48
8.715	3.17
8.834	4.06
8.956	5.22
9.081	6.16
9.21	6.96
9.343	7.99
9.479	8.48
9.62	8.42
9.765	7.48
9.914	6.81
10.068	6.25
10.227	5.96
10.391	5.6
10.56	5.5
10.735	5.42
10.916	5.59
11.103	5.57
11.297	5.41
11.497	4.78
11.704	4.17
11.92	3.78
12.143	3.26
12.375	2.85
12.616	2.72
12.866	2.54
13.126	2.41
13.398	2.51
13.68	2.34
13.975	2.14
