Name: Thenardite Na2SO4
Type: Mineral
Class: Sulfate
Subclass: None
Particle Size: Unsieved coarse powder
Sample No.: None
Owner: USGS
Origin: Saline Valley, California
Description: Thenardite from Saline Valley, California
Measurement: Directional Hemispherical Reflectance
X Units: Wavelength (micrometers)
Y Units: Reflectance (percent)
wavelength	value
0.4	52.9145
0.414	54.0013
0.428	55.2405
0.442	56.9162
0.456	58.3315
0.47	58.9645
0.484	59.6806
0.498	60.9304
0.512	62.0687
0.526	63.3416
0.54	64.6481
0.554	65.7755
0.568	66.7243
0.582	67.4702
0.596	68.0184
0.61	68.3805
0.624	68.628
0.638	68.8555
0.652	69.0585
0.666	69.2318
0.68	69.3995
0.694	69.5824
0.708	69.7477
0.722	69.9373
0.736	70.1633
0.75	70.3431
0.764	70.5369
0.778	70.7738
0.792	70.9104
0.806	71.102
0.82	71.2015
0.834	71.1261
0.848	71.1835
0.862	72.209
0.876	72.0009
0.89	71.7008
0.904	71.6706
0.918	71.748
0.932	71.9542
0.946	71.9681
0.96	72.2197
0.974	72.2916
0.988	72.3627
1.002	72.8429
1.016	72.7113
1.03	72.8185
1.044	72.9004
1.058	73.2222
1.072	73.0162
1.086	73.3745
1.1	73.2479
1.114	73.2896
1.128	73.4993
1.142	73.4172
1.156	73.428
1.17	73.7554
1.184	73.6855
1.198	73.9636
1.212	73.9227
1.226	74.0835
1.24	74.0971
1.254	74.2756
1.268	74.5134
1.282	74.2613
1.296	74.2732
1.31	74.6198
1.324	74.5058
1.338	74.7496
1.352	74.5225
1.366	74.7453
1.38	74.7676
1.394	74.3782
1.408	73.6111
1.422	72.7433
1.436	72.3443
1.45	72.0263
1.464	71.7467
1.478	71.8446
1.492	72.3228
1.506	72.4844
1.52	72.9644
1.534	72.9739
1.548	73.1011
1.562	73.1688
1.576	73.3472
1.59	73.3257
1.604	73.1711
1.618	73.0378
1.632	73.1369
1.646	72.971
1.66	72.9964
1.674	72.9959
1.688	73.1017
1.702	73.0837
1.716	73.0789
1.73	73.1808
1.744	73.2217
1.758	73.134
1.772	72.9695
1.786	72.9235
1.8	72.9655
1.814	73.1739
1.828	73.454
1.842	73.4346
1.856	73.4627
1.87	73.2524
1.884	72.2994
1.898	69.8921
1.912	66.5301
1.926	64.7028
1.94	63.355
1.954	63.1129
1.968	63.6298
1.982	64.2947
1.996	65.1636
2.01	66.5272
2.024	67.6865
2.038	68.5987
2.052	69.3109
2.066	69.4629
2.08	69.6571
2.094	69.4942
2.108	69.5461
2.122	70.4521
2.136	71.2583
2.15	71.6898
2.164	71.6798
2.178	71.3989
2.192	71.2048
2.206	70.9753
2.22	71.0355
2.234	71.1102
2.248	71.2077
2.262	71.3597
2.276	71.4958
2.29	71.5735
2.304	71.5012
2.318	70.9705
2.332	70.4946
2.346	69.6119
2.36	68.7962
2.374	67.6055
2.388	66.6488
2.402	65.6927
2.416	64.1237
2.43	62.7686
2.444	62.2103
2.458	62.4152
2.472	62.3903
2.486	62.1988
2.5	61.9339
2.509	61.5837
2.517	61.0069
2.526	60.7803
2.535	60.5846
2.543	60.0902
2.552	59.9151
2.561	60.4095
2.57	60.3786
2.579	60.6876
2.588	60.6979
2.597	60.9863
2.606	60.8627
2.615	60.6258
2.624	60.2035
2.634	60.2756
2.643	59.3177
2.653	58.9984
2.662	57.8757
2.672	56.753
2.681	55.3213
2.691	52.4682
2.701	48.1628
2.711	45.7732
2.721	42.5699
2.731	39.2224
2.741	36.1633
2.751	32.8158
2.761	30.179
2.772	27.81
2.782	26.1723
2.793	24.7406
2.803	23.4325
2.814	22.1656
2.825	21.0841
2.835	19.8172
2.846	18.0971
2.857	17.3143
2.868	17.8293
2.879	17.8808
2.891	17.6027
2.902	17.2731
2.913	17.1186
2.925	16.8714
2.937	16.6654
2.948	16.7787
2.96	16.7478
2.972	16.9023
2.984	16.995
2.996	17.0053
3.008	17.201
3.02	17.3864
3.033	17.6748
3.045	17.7263
3.058	18.0868
3.07	18.334
3.083	18.5709
3.096	18.8902
3.109	18.8902
3.122	19.3331
3.135	19.879
3.149	20.3734
3.162	20.806
3.176	21.4446
3.189	21.8669
3.203	22.5261
3.217	22.8557
3.231	22.8763
3.245	22.9072
3.259	24.7303
3.274	25.8736
3.288	26.6358
3.303	27.4392
3.318	28.2117
3.333	28.7988
3.348	29.4477
3.363	30.0966
3.378	30.6734
3.394	31.3223
3.409	31.724
3.425	32.5171
3.441	33.6913
3.457	34.5668
3.473	35.123
3.49	35.8234
3.506	36.7401
3.523	38.0791
3.54	39.1194
3.557	40.2215
3.574	41.1382
3.591	41.9622
3.609	42.7038
3.626	43.3218
3.644	43.5381
3.662	44.1355
3.68	44.6196
3.699	45.4642
3.717	45.9071
3.736	45.9792
3.755	45.6805
3.774	45.3715
3.794	45.0007
3.813	45.0419
3.833	44.6814
3.853	44.2488
3.873	45.4951
3.893	45.5569
3.914	45.5466
3.935	45.4024
3.956	45.2891
3.977	44.7432
3.998	44.2797
4.02	43.466
4.042	42.4257
4.064	41.303
4.086	40.2215
4.109	38.9134
4.132	37.4096
4.155	35.8543
4.179	34.0827
4.202	32.3729
4.226	30.4365
4.251	24.6479
4.275	19.5185
4.3	15.553
4.325	12.7308
4.35	10.1764
4.376	10.9077
4.402	10.2073
4.428	9.0743
4.455	8.8683
4.482	9.064
4.509	10.5163
4.537	15.9547
4.565	8.6108
4.593	8.446
4.622	10.3721
4.651	8.8477
4.68	8.6417
4.71	6.798
4.74	4.5217
4.771	4.2745
4.802	11.0828
4.833	18.9726
4.865	25.0084
4.897	29.3241
4.929	32.2905
4.962	34.1651
4.996	35.535
5.03	36.3178
5.064	37.5435
5.099	38.4911
5.134	38.9752
5.17	39.7477
5.206	39.7374
5.243	39.3666
5.281	38.9031
5.319	38.5941
5.357	38.0379
5.396	36.7298
5.436	33.4647
5.476	28.8194
5.517	27.9851
5.558	27.3774
5.6	26.1311
5.643	23.2677
5.686	20.9502
5.73	19.9099
5.775	20.1468
5.82	23.2677
5.866	22.8969
5.913	18.8696
5.96	17.0671
6.009	16.3255
6.058	14.0698
6.108	11.1137
6.159	9.9292
6.21	8.0134
6.263	9.6408
6.316	9.7026
6.37	10.2897
6.426	11.1343
6.482	16.7066
6.539	18.643
6.597	18.5812
6.657	17.7263
6.717	16.3152
6.778	14.4509
6.841	14.1934
6.905	12.9162
6.97	11.0004
7.036	10.0322
7.103	8.3121
7.172	7.21
7.242	6.1285
7.314	4.6762
7.387	3.5123
7.461	3.0488
7.537	2.5029
7.614	2.0188
7.694	1.5965
7.774	1.339
7.857	1.2051
7.941	1.3184
8.027	1.6995
8.115	3.1827
8.205	7.931
8.297	19.9202
8.391	24.3492
8.487	26.4401
8.585	22.5776
8.686	23.3192
8.789	24.7097
8.894	20.9605
9.002	13.081
9.113	8.4048
9.226	7.3748
9.343	7.8692
9.462	8.3739
9.585	8.7859
9.71	9.1773
9.839	9.2391
9.972	9.4863
10.108	9.7026
10.247	10.0116
10.391	11.3094
10.539	11.8965
10.691	12.4012
10.848	12.7926
11.009	13.1531
11.175	12.9265
11.346	12.5145
11.522	12.4424
11.704	13.1531
11.892	12.7926
12.086	11.6802
12.287	10.918
12.494	9.8262
12.708	9.1773
12.93	8.7756
13.16	8.5902
13.398	8.137
13.644	7.8589
13.9	6.7053
