Name: Limestone CaCO3
Type: Rock
Class: Sedimentary
Subclass: Limestone
Particle Size: Whole rock chips
Sample No.: ro367
Owner: Larry Rowan, USGS
Origin: Ronda, Spain
Description: white limestone
Measurement: Reflectance
X Units: Wavelength (micrometers)
Y Units: Reflectance (percent)
wavelength	value
0.4	45.1
0.408	45.9
0.416	46.5
0.424	47.4
0.432	47.5
0.44	48.5
0.448	48.6
0.456	49.5
0.464	49.6
0.472	50.1
0.48	50.5
0.488	50.5
0.496	51.3
0.504	51.8
0.512	52.1
0.52	52.3
0.528	53.4
0.536	54.1
0.544	53.6
0.552	54.6
0.56	54.8
0.568	55.3
0.576	54.9
0.584	55.3
0.592	55.9
0.6	55.8
0.608	55.7
0.616	55.7
0.624	55.4
0.632	55.6
0.64	55.6
0.648	55.8
0.656	56.2
0.664	56.4
0.672	56
0.68	56.9
0.688	56.3
0.696	57.6
0.704	57.6
0.712	57.6
0.72	57.8
0.728	58.1
0.736	58.2
0.744	58
0.752	58.1
0.76	58.2
0.768	58.4
0.776	58.4
0.784	58.1
0.792	58.1
0.8	58.7
0.832	58.7
0.864	58.2
0.896	58.1
0.928	57.8
0.96	57.9
0.992	58
1.024	58.1
1.056	58.2
1.088	59.2
1.12	59.5
1.152	59.7
1.184	60.2
1.216	60.6
1.248	60.2
1.28	61.1
1.312	61.3
1.344	60.4
1.376	58.7
1.408	53.8
1.44	52.3
1.472	53.2
1.504	55.6
1.536	56.5
1.568	57.9
1.6	58.1
1.632	58.1
1.664	58.1
1.696	56.9
1.728	54.9
1.76	55.6
1.792	55.8
1.824	52.5
1.856	46.6
1.888	42.7
1.92	38.2
1.952	37.9
1.984	38.2
2.016	44.2
2.048	47.3
2.08	48.5
2.102	46.23
2.109	46.32
2.116	45.93
2.123	45.12
2.13	44.71
2.137	43.76
2.144	41.51
2.151	39.67
2.158	39.84
2.165	40.55
2.173	41.63
2.18	42.72
2.187	42.98
2.195	43.22
2.202	42.47
2.21	41.33
2.217	40.75
2.225	38.99
2.232	37.03
2.24	35.41
2.248	33.37
2.256	31.25
2.264	29.16
2.272	27.32
2.28	24.91
2.288	22.78
2.296	21.63
2.304	21.12
2.312	20.61
2.32	19.35
2.329	18.01
2.337	16.63
2.346	17.22
2.354	19.64
2.363	24.45
2.371	28.53
2.38	32.15
2.389	33.42
2.398	32.63
2.406	32.36
2.415	31.9
2.424	29.88
2.434	27.81
2.443	25.4
2.452	23.22
2.461	20.88
2.471	18.47
2.48	16.83
2.49	15.52
2.499	15.14
2.509	14.61
2.519	13.95
2.528	12.49
2.538	12
2.548	14.07
2.558	18.28
2.569	21.94
2.579	24.38
2.589	26.75
2.599	28.6
2.61	29.73
2.62	30.04
2.631	29.82
2.642	29.2
2.653	28.48
2.664	27.1
2.675	25.6
2.686	23.34
2.697	20.26
2.708	16.93
2.719	14.04
2.731	12.45
2.742	10.93
2.754	10.17
2.766	9.49
2.778	8.81
2.79	8.26
2.802	8.32
2.814	8.06
2.826	7.76
2.838	7.92
2.851	7.75
2.864	7.65
2.876	7.31
2.889	7.25
2.902	7.08
2.915	6.96
2.928	6.97
2.942	6.96
2.955	6.95
2.968	7.07
2.982	6.92
2.996	6.96
3.01	6.95
3.024	7.12
3.038	6.91
3.052	6.99
3.067	7.09
3.081	7.06
3.096	6.99
3.111	7.01
3.126	7.02
3.141	7.14
3.156	7.28
3.172	7.5
3.187	7.69
3.203	7.88
3.219	7.88
3.235	7.76
3.251	7.81
3.268	7.74
3.284	7.4
3.301	7.09
3.318	6.67
3.335	5.48
3.352	4.35
3.37	4.56
3.387	4.67
3.405	4.71
3.423	4.74
3.441	4.79
3.46	4.48
3.478	4.02
3.497	4.42
3.516	4.85
3.535	6.06
3.554	6.98
3.574	7.18
3.594	8.33
3.614	9.06
3.634	9.38
3.655	9.75
3.675	9.87
3.696	9.77
3.717	9.43
3.739	8.83
3.761	8.18
3.782	7.28
3.805	5.46
3.827	4.7
3.85	4.31
3.873	4.17
3.896	4.14
3.92	4.01
3.944	3.59
3.968	3.13
3.992	3.44
4.017	4.2
4.042	5.1
4.067	5.92
4.093	6.46
4.119	7.01
4.145	7.55
4.172	7.92
4.199	8.21
4.226	8.4
4.254	8.56
4.282	8.55
4.311	8.35
4.34	8.35
4.369	8.83
4.398	8.59
4.428	8.17
4.459	7.47
4.49	6.71
4.521	6.54
4.553	6.45
4.585	6.22
4.618	5.77
4.651	4.91
4.684	4.88
4.719	5.94
4.753	6.81
4.788	7.16
4.824	7.13
4.86	7
4.897	6.9
4.934	6.78
4.972	6.76
5.01	6.83
5.049	6.7
5.089	5.3
5.129	6.19
5.17	5.92
5.212	5.61
5.254	5.2
5.297	4.78
5.341	4.29
5.385	3.8
5.43	3.31
5.476	2.87
5.523	2.24
5.57	1.79
5.618	2.37
5.667	2.16
5.717	1.98
5.768	1.85
5.82	1.78
5.873	1.68
5.926	1.58
5.981	1.43
6.037	1.26
6.094	1.27
6.151	1.4
6.21	1.78
6.27	2.84
6.332	6
6.394	15.14
6.458	30.47
6.523	31.02
6.589	28.41
6.657	25.64
6.726	23.05
6.796	20.97
6.868	19.65
6.942	18.5
7.017	18.29
7.094	16.78
7.172	12.23
7.252	9.86
7.334	9.17
7.418	8.52
7.504	8.08
7.592	7.7
7.682	7.64
7.774	7.31
7.869	7.23
7.965	7.05
8.064	6.77
8.166	6.75
8.27	6.49
8.377	6.05
8.487	5.79
8.599	5.85
8.715	6.23
8.834	6.62
8.956	6.69
9.081	6.63
9.21	5.86
9.343	6.25
9.479	6.48
9.62	6.07
9.765	5.6
9.914	5.38
10.068	5.59
10.227	5.68
10.391	5.91
10.56	5.52
10.735	5.82
10.916	6.88
11.103	7.5
11.297	17.15
11.497	7.04
11.704	5.38
11.92	5.22
12.143	5.04
12.375	4.78
12.616	4.49
12.866	4.35
13.126	4.43
13.398	4.22
13.68	3.46
13.975	3.39
