Name: Basalt
Type: Rock
Class: Igneous
Subclass: Mafic
Particle Size: Whole rock chips
Sample No.: ba9a4f
Owner: Larry Rowan, USGS
Origin: Wadi Salima, Jordan
Description: dark gray vesicular basalt
Measurement: Reflectance
X Units: Wavelength (micrometers)
Y Units: Reflectance (percent)
wavelength	value
0.4	10.2
0.408	10.2
0.416	10.2
0.424	10
0.432	9.7
0.44	9.6
0.448	9.3
0.456	8.9
0.464	8.6
0.472	8.5
0.48	8.2
0.488	8.3
0.496	8.5
0.504	8.2
0.512	8
0.52	8
0.528	8.3
0.536	8.2
0.544	8.3
0.552	8.3
0.56	8.5
0.568	8.5
0.576	8.3
0.584	8.6
0.592	8.5
0.6	8.6
0.608	8.6
0.616	8.6
0.624	8.6
0.632	8.9
0.64	8.9
0.648	8.6
0.656	8.7
0.664	9
0.672	8.7
0.68	8.9
0.688	8.9
0.696	8.7
0.704	8.9
0.712	9.1
0.72	9.1
0.728	9.3
0.736	9.3
0.744	9.3
0.752	9
0.76	9.1
0.768	9.1
0.776	9.1
0.784	9.3
0.792	9.1
0.8	9.5
0.832	9.2
0.864	9.2
0.896	9.3
0.928	9.2
0.96	9.3
0.992	9.4
1.024	9.4
1.056	9
1.088	9.2
1.12	9
1.152	9
1.184	8.9
1.216	8.8
1.248	8.5
1.28	8.3
1.312	8.4
1.344	8.3
1.376	8.2
1.408	8.1
1.44	7.9
1.472	7.8
1.504	7.8
1.536	7.8
1.568	7.8
1.6	7.7
1.632	7.7
1.664	7.6
1.696	7.6
1.728	7.6
1.76	7.3
1.792	7.4
1.824	7.3
1.856	7.2
1.888	7
1.92	6.7
1.952	6.7
1.984	6.8
2.016	7.1
2.048	7.1
2.08	7.1
2.102	7.7
2.109	7.61
2.116	7.73
2.123	7.59
2.13	7.51
2.137	7.27
2.144	7.62
2.151	7.54
2.158	7.56
2.165	7.55
2.173	7.53
2.18	7.49
2.187	7.48
2.195	7.5
2.202	7.43
2.21	7.34
2.217	7.65
2.225	7.69
2.232	7.5
2.24	7.38
2.248	7.47
2.256	7.42
2.264	7.48
2.272	7.57
2.28	7.48
2.288	7.49
2.296	7.52
2.304	7.54
2.312	7.4
2.32	7.32
2.329	7.43
2.337	7.43
2.346	7.22
2.354	7.19
2.363	7.37
2.371	7.33
2.38	7.15
2.389	7.28
2.398	7.25
2.406	7.12
2.415	7.18
2.424	7.15
2.434	7.28
2.443	7.02
2.452	7.06
2.461	7.08
2.471	6.78
2.48	6.96
2.49	6.74
2.499	7.05
2.509	6.75
2.519	6.78
2.528	6.63
2.538	6.75
2.548	6.56
2.558	6.63
2.569	6.35
2.579	6.65
2.589	6.45
2.599	6.62
2.61	6.4
2.62	6.22
2.631	6.3
2.642	6.49
2.653	6.07
2.664	5.92
2.675	5.65
2.686	5.22
2.697	4.82
2.708	4.26
2.719	3.85
2.731	4.13
2.742	3.84
2.754	3.56
2.766	3.58
2.778	3.58
2.79	3.34
2.802	3.39
2.814	3.63
2.826	3.33
2.838	3.53
2.851	3.58
2.864	3.49
2.876	3.4
2.889	3.67
2.902	3.57
2.915	3.51
2.928	3.52
2.942	3.53
2.955	3.47
2.968	3.68
2.982	3.44
2.996	3.41
3.01	3.62
3.024	3.65
3.038	3.76
3.052	3.68
3.067	3.72
3.081	3.69
3.096	3.77
3.111	3.75
3.126	3.86
3.141	3.81
3.156	4.03
3.172	4.04
3.187	3.98
3.203	4.04
3.219	4.13
3.235	4.11
3.251	4.24
3.268	4.18
3.284	4.27
3.301	4.37
3.318	4.5
3.335	4.51
3.352	4.58
3.37	4.59
3.387	4.72
3.405	4.87
3.423	4.97
3.441	5.03
3.46	4.94
3.478	5.05
3.497	5.18
3.516	5.19
3.535	5.37
3.554	5.4
3.574	5.57
3.594	5.61
3.614	5.71
3.634	5.77
3.655	5.81
3.675	6
3.696	5.93
3.717	5.99
3.739	6.06
3.761	6.12
3.782	6.02
3.805	6.11
3.827	6.09
3.85	5.9
3.873	5.96
3.896	5.94
3.92	5.94
3.944	5.89
3.968	5.74
3.992	5.79
4.017	6.05
4.042	6.12
4.067	6.24
4.093	6.22
4.119	6.22
4.145	6.27
4.172	6.22
4.199	6.11
4.226	5.6
4.254	5.92
4.282	5.73
4.311	5.87
4.34	6.06
4.369	6.06
4.398	6.03
4.428	6.03
4.459	5.95
4.49	6
4.521	5.9
4.553	5.91
4.585	5.85
4.618	5.88
4.651	5.75
4.684	5.71
4.719	5.71
4.753	5.66
4.788	5.64
4.824	5.58
4.86	5.56
4.897	5.49
4.934	5.48
4.972	5.47
5.01	5.39
5.049	5.42
5.089	5.4
5.129	5.37
5.17	5.39
5.212	5.23
5.254	5.27
5.297	5.28
5.341	5.09
5.385	5.21
5.43	5.08
5.476	4.85
5.523	4.76
5.57	4.45
5.618	4.73
5.667	4.55
5.717	4.36
5.768	4.15
5.82	3.73
5.873	3.42
5.926	3.23
5.981	2.99
6.037	2.76
6.094	3.02
6.151	3.05
6.21	3.51
6.27	3.85
6.332	3.84
6.394	4.26
6.458	4.77
6.523	4.53
6.589	4.3
6.657	4.35
6.726	4.33
6.796	4.37
6.868	4.2
6.942	4.32
7.017	4.34
7.094	4.44
7.172	4.18
7.252	4.12
7.334	4.05
7.418	4.13
7.504	3.98
7.592	3.91
7.682	3.77
7.774	3.65
7.869	3.56
7.965	3.32
8.064	3.21
8.166	3.02
8.27	2.89
8.377	2.77
8.487	3.07
8.599	3.52
8.715	4.57
8.834	5.76
8.956	7.09
9.081	7.96
9.21	8.71
9.343	10.13
9.479	11.07
9.62	11.03
9.765	10.19
9.914	9.42
10.068	8.73
10.227	8.52
10.391	7.99
10.56	7.74
10.735	7.4
10.916	7.37
11.103	7.08
11.297	7.17
11.497	6.26
11.704	5.27
11.92	4.64
12.143	4.2
12.375	3.72
12.616	3.36
12.866	3.07
13.126	3.03
13.398	3
13.68	2.93
13.975	2.88
