Name: Gypsum CaSO4 * 2H2O
Type: Mineral
Class: Sulfate
Subclass: None
Particle Size: Unsieved coarse powder
Sample No.: None
Owner: USGS
Origin: Mesquite playa, California
Description: Gypsum from Mesquite Playa, CA
Measurement: Directional Hemispherical Reflectance
X Units: Wavelength (micrometers)
Y Units: Reflectance (percent)
wavelength	value
0.4	29.6221
0.414	30.4881
0.428	31.4723
0.442	32.7316
0.456	33.7744
0.47	34.3736
0.484	34.9687
0.498	35.9333
0.512	36.9072
0.526	37.9794
0.54	39.1426
0.554	40.3364
0.568	41.5794
0.582	42.6194
0.596	43.4071
0.61	43.891
0.624	44.2174
0.638	44.4623
0.652	44.7333
0.666	44.9647
0.68	45.1863
0.694	45.4025
0.708	45.6193
0.722	45.8345
0.736	46.0048
0.75	46.1317
0.764	46.2024
0.778	46.3219
0.792	46.3827
0.806	46.4642
0.82	46.4442
0.834	46.4008
0.848	46.4222
0.862	46.3718
0.876	46.5422
0.89	46.4722
0.904	46.2198
0.918	46.2756
0.932	46.3986
0.946	46.3183
0.96	45.9779
0.974	45.6376
0.988	44.9709
1.002	44.5775
1.016	45.319
1.03	46.1302
1.044	46.61
1.058	46.9406
1.072	47.049
1.086	47.1487
1.1	47.0717
1.114	46.6512
1.128	46.5233
1.142	46.3476
1.156	45.2444
1.17	42.8456
1.184	40.6417
1.198	40.3585
1.212	39.9029
1.226	41.5387
1.24	41.6994
1.254	43.2474
1.268	43.5691
1.282	43.9097
1.296	43.8361
1.31	43.5494
1.324	42.5827
1.338	41.338
1.352	38.971
1.366	36.7508
1.38	35.133
1.394	33.9476
1.408	31.4342
1.422	26.2838
1.436	21.8697
1.45	15.6066
1.464	19.2442
1.478	20.5266
1.492	19.7744
1.506	21.6924
1.52	23.6662
1.534	22.9522
1.548	23.0951
1.562	26.8291
1.576	29.5677
1.59	31.4656
1.604	33.5894
1.618	35.5753
1.632	37.1415
1.646	38.654
1.66	39.6511
1.674	40.1657
1.688	39.5773
1.702	37.6566
1.716	33.7048
1.73	28.5849
1.744	24.2499
1.758	23.3052
1.772	24.7897
1.786	25.8782
1.8	28.6447
1.814	30.4186
1.828	31.3456
1.842	31.3439
1.856	29.7827
1.87	26.0894
1.884	20.1088
1.898	15.1064
1.912	11.3397
1.926	8.6823
1.94	6.6942
1.954	6.5178
1.968	7.7554
1.982	8.1378
1.996	9.4602
2.01	14.0219
2.024	17.4053
2.038	19.3065
2.052	20.5291
2.066	20.6733
2.08	20.7502
2.094	20.2857
2.108	19.3091
2.122	18.2651
2.136	17.2916
2.15	16.5587
2.164	15.5587
2.178	14.6613
2.192	14.2804
2.206	13.6113
2.22	12.6876
2.234	13.5324
2.248	14.2165
2.262	14.0356
2.276	13.8208
2.29	14.9038
2.304	15.5712
2.318	15.8666
2.332	15.6527
2.346	15.0884
2.36	14.0828
2.374	12.8428
2.388	11.1257
2.402	9.3939
2.416	8.1397
2.43	7.3663
2.444	6.9116
2.458	6.7745
2.472	6.3225
2.486	6.2623
2.5	6.2315
2.509	6.3036
2.517	6.4993
2.526	6.5405
2.535	6.5199
2.543	6.5199
2.552	6.3551
2.561	6.3139
2.57	6.2109
2.579	6.1903
2.588	6.2315
2.597	6.0976
2.606	6.0564
2.615	5.9843
2.624	5.8916
2.634	5.8195
2.643	5.7886
2.653	5.2324
2.662	4.9028
2.672	4.6762
2.681	4.1715
2.691	3.8831
2.701	3.3578
2.711	3.0076
2.721	2.7501
2.731	2.3484
2.741	2.4617
2.751	1.9364
2.761	1.8746
2.772	1.5553
2.782	1.648
2.793	1.7613
2.803	1.5862
2.814	1.854
2.825	1.957
2.835	1.7613
2.846	1.4523
2.857	1.6171
2.868	1.339
2.879	1.442
2.891	1.6068
2.902	1.9673
2.913	2.5544
2.925	3.8316
2.937	4.0788
2.948	3.4917
2.96	3.1003
2.972	2.7707
2.984	2.5132
2.996	2.4926
3.008	2.575
3.02	2.5338
3.033	2.4102
3.045	2.472
3.058	2.472
3.07	2.6059
3.083	2.4823
3.096	2.781
3.109	2.8737
3.122	2.8634
3.135	3.0694
3.149	3.1415
3.162	3.3784
3.176	3.5741
3.189	3.6771
3.203	3.9243
3.217	3.9861
3.231	4.1715
3.245	4.4393
3.259	4.532
3.274	4.8101
3.288	4.9749
3.303	5.2427
3.318	5.5208
3.333	5.7268
3.348	5.974
3.363	6.2418
3.378	6.5199
3.394	6.8907
3.409	7.1276
3.425	7.2409
3.441	7.6426
3.457	7.9516
3.473	8.2709
3.49	8.5181
3.506	8.8271
3.523	9.3421
3.54	9.5893
3.557	9.888
3.574	10.3412
3.591	10.6605
3.609	11.1034
3.626	11.5978
3.644	12.0407
3.662	12.5351
3.68	12.7823
3.699	13.1325
3.717	13.1531
3.736	13.2355
3.755	13.3385
3.774	13.3591
3.794	13.2149
3.813	13.3076
3.833	13.1634
3.853	12.9883
3.873	11.7317
3.893	12.4424
3.914	11.9995
3.935	11.3815
3.956	10.506
3.977	9.7747
3.998	10.1764
4.02	9.8777
4.042	9.373
4.064	8.7241
4.086	8.1576
4.109	7.5911
4.132	7.1482
4.155	6.6744
4.179	6.1697
4.202	5.7268
4.226	5.253
4.251	4.7277
4.275	4.3054
4.3	3.8007
4.325	3.3887
4.35	3.1209
4.376	2.9767
4.402	2.8222
4.428	2.6368
4.455	2.5441
4.482	2.5338
4.509	2.5441
4.537	2.5029
4.565	2.678
4.593	2.8119
4.622	2.9252
4.651	2.8634
4.68	2.7604
4.71	2.7089
4.74	2.8943
4.771	3.5226
4.802	4.1509
4.833	4.5526
4.865	4.8101
4.897	5.0058
4.929	5.2221
4.962	5.1706
4.996	5.3148
5.03	5.3251
5.064	5.2736
5.099	5.3766
5.134	5.4693
5.17	5.5414
5.206	5.6135
5.243	5.562
5.281	5.3869
5.319	5.253
5.357	5.0779
5.396	4.9955
5.436	4.7792
5.476	4.3775
5.517	3.9861
5.558	3.6359
5.6	3.4299
5.643	3.2033
5.686	2.9973
5.73	2.7501
5.775	2.4823
5.82	2.2969
5.866	2.0188
5.913	1.648
5.96	1.6274
6.009	1.6686
6.058	1.4729
6.108	1.2978
6.159	3.2033
6.21	2.3896
6.263	2.2763
6.316	2.2969
6.37	2.3278
6.426	2.3278
6.482	2.3381
6.539	2.3587
6.597	2.3484
6.657	2.3175
6.717	2.2763
6.778	2.1218
6.841	2.1012
6.905	2.0394
6.97	1.9776
7.036	1.9055
7.103	1.7098
7.172	1.751
7.242	1.6068
7.314	1.4729
7.387	1.2978
7.461	1.1845
7.537	1.0506
7.614	0.9785
7.694	0.8034
7.774	0.7931
7.857	0.7107
7.941	0.7416
8.027	0.9373
8.115	1.5347
8.205	3.193
8.297	7.3439
8.391	10.3103
8.487	15.2131
8.585	19.9614
8.686	21.2798
8.789	19.6112
8.894	16.0474
9.002	11.2167
9.113	7.1585
9.226	5.4693
9.343	4.6968
9.462	4.1921
9.585	3.9449
9.71	3.5638
9.839	3.4093
9.972	3.1106
10.108	3.0179
10.247	2.9046
10.391	2.8222
10.539	2.6986
10.691	2.575
10.848	2.575
11.009	2.5235
11.175	2.4823
11.346	2.369
11.522	2.3175
11.704	2.1733
11.892	2.1218
12.086	2.0806
12.287	1.9673
12.494	1.8746
12.708	1.7201
12.93	1.6995
13.16	1.5141
13.398	1.4729
13.644	1.3184
13.9	1.1742
