Name: Basalt
Type: Rock
Class: Igneous
Subclass: Mafic
Particle Size: Whole rock chips
Sample No.: ba12c3f
Owner: Larry Rowan, USGS
Origin: Wadi Mujib, Jordan
Description: dark gray vesicular basalt
Measurement: Reflectance
X Units: Wavelength (micrometers)
Y Units: Reflectance (percent)
wavelength	value
0.4	12.5
0.408	12.5
0.416	12.4
0.424	12
0.432	11.9
0.44	11.7
0.448	11.4
0.456	10.8
0.464	11
0.472	10.6
0.48	10.5
0.488	10.5
0.496	10.4
0.504	10.2
0.512	10.2
0.52	10
0.528	10.3
0.536	10.2
0.544	10.2
0.552	10.4
0.56	10.3
0.568	10.5
0.576	10.6
0.584	10.8
0.592	10.6
0.6	10.8
0.608	10.9
0.616	10.8
0.624	10.9
0.632	10.8
0.64	11
0.648	10.9
0.656	11
0.664	11.1
0.672	11.4
0.68	11.1
0.688	11.1
0.696	10.9
0.704	11.4
0.712	11.5
0.72	11.5
0.728	11.4
0.736	11.6
0.744	11.6
0.752	11.6
0.76	11.7
0.768	11.7
0.776	11.7
0.784	11.9
0.792	11.9
0.8	12.3
0.832	12.2
0.864	11.8
0.896	11.7
0.928	11.5
0.96	11.1
0.992	11.1
1.024	11.2
1.056	11.2
1.088	11.1
1.12	11.5
1.152	11.5
1.184	11.5
1.216	11.6
1.248	11.7
1.28	11.5
1.312	11.5
1.344	11.7
1.376	11.6
1.408	11.6
1.44	11.6
1.472	11.6
1.504	11.8
1.536	12
1.568	12.2
1.6	12
1.632	12.2
1.664	12.2
1.696	12.2
1.728	12.3
1.76	12.2
1.792	12.3
1.824	12.5
1.856	12.2
1.888	11.7
1.92	11.2
1.952	11.4
1.984	11.6
2.016	11.8
2.048	12.2
2.08	12.1
2.102	13.21
2.109	13.24
2.116	13.3
2.123	13.3
2.13	13
2.137	13.05
2.144	13.48
2.151	13.17
2.158	13.29
2.165	13.12
2.173	13.22
2.18	12.97
2.187	13.17
2.195	13.21
2.202	13.05
2.21	12.77
2.217	12.87
2.225	12.88
2.232	12.56
2.24	12.9
2.248	12.84
2.256	12.77
2.264	12.93
2.272	12.71
2.28	12.85
2.288	12.86
2.296	12.59
2.304	12.58
2.312	12.55
2.32	12.59
2.329	12.63
2.337	12.48
2.346	12.4
2.354	12.63
2.363	12.64
2.371	12.57
2.38	12.49
2.389	12.53
2.398	12.55
2.406	12.53
2.415	12.48
2.424	12.46
2.434	12.33
2.443	12.38
2.452	12.41
2.461	12.34
2.471	12.2
2.48	12.25
2.49	12.29
2.499	12.33
2.509	12.14
2.519	12.17
2.528	12.02
2.538	11.96
2.548	11.66
2.558	11.96
2.569	11.53
2.579	12
2.589	11.41
2.599	12.05
2.61	11.34
2.62	10.92
2.631	10.82
2.642	11.72
2.653	11.12
2.664	10.37
2.675	10.32
2.686	10.21
2.697	9.56
2.708	8.3
2.719	6.92
2.731	7.79
2.742	6.34
2.754	5.7
2.766	5.81
2.778	5.91
2.79	5.95
2.802	5.39
2.814	5.74
2.826	6.04
2.838	5.95
2.851	5.9
2.864	6.03
2.876	5.91
2.889	5.82
2.902	5.7
2.915	5.92
2.928	5.74
2.942	5.91
2.955	5.77
2.968	5.91
2.982	5.96
2.996	5.87
3.01	5.93
3.024	6.1
3.038	6.08
3.052	5.97
3.067	6.12
3.081	6.01
3.096	6.23
3.111	6.13
3.126	6.22
3.141	6.34
3.156	6.49
3.172	6.5
3.187	6.68
3.203	6.95
3.219	6.99
3.235	7.09
3.251	7.24
3.268	7.34
3.284	7.59
3.301	7.64
3.318	7.66
3.335	7.66
3.352	7.51
3.37	7.69
3.387	7.85
3.405	7.89
3.423	8.07
3.441	8.24
3.46	8.17
3.478	8.03
3.497	8.28
3.516	8.55
3.535	9.05
3.554	9.3
3.574	9.43
3.594	9.64
3.614	9.78
3.634	9.83
3.655	9.98
3.675	10
3.696	10.09
3.717	10.24
3.739	10.23
3.761	10.29
3.782	10.01
3.805	9.68
3.827	9.31
3.85	8.97
3.873	9.01
3.896	8.94
3.92	8.71
3.944	8.38
3.968	8.01
3.992	8.27
4.017	8.75
4.042	9.3
4.067	9.51
4.093	9.7
4.119	9.75
4.145	9.68
4.172	9.64
4.199	9.07
4.226	6.29
4.254	8.08
4.282	6.83
4.311	7.83
4.34	8.7
4.369	8.9
4.398	8.82
4.428	8.68
4.459	8.59
4.49	8.32
4.521	8.17
4.553	8.01
4.585	7.76
4.618	7.51
4.651	7.27
4.684	7.06
4.719	7.04
4.753	6.9
4.788	6.76
4.824	6.6
4.86	6.42
4.897	6.39
4.934	6.26
4.972	6.11
5.01	5.95
5.049	5.76
5.089	5.6
5.129	5.53
5.17	5.45
5.212	5.14
5.254	5.21
5.297	5
5.341	4.73
5.385	4.82
5.43	4.64
5.476	4.33
5.523	4.16
5.57	3.67
5.618	3.99
5.667	3.82
5.717	3.62
5.768	3.42
5.82	3.1
5.873	2.88
5.926	2.9
5.981	2.84
6.037	2.64
6.094	3.1
6.151	2.98
6.21	3.27
6.27	3.58
6.332	3.57
6.394	4.29
6.458	5.28
6.523	5.26
6.589	4.74
6.657	4.92
6.726	4.89
6.796	4.69
6.868	4.48
6.942	4.5
7.017	4.52
7.094	4.39
7.172	3.68
7.252	3.32
7.334	3.09
7.418	3.14
7.504	3.02
7.592	2.87
7.682	2.81
7.774	2.75
7.869	2.7
7.965	2.87
8.064	3.22
8.166	4.44
8.27	7.09
8.377	8.67
8.487	9.09
8.599	9.51
8.715	9.74
8.834	10.22
8.956	10.48
9.081	10.37
9.21	10.01
9.343	10.92
9.479	12.35
9.62	13.08
9.765	13.21
9.914	12.9
10.068	12.03
10.227	11.55
10.391	11.2
10.56	10.97
10.735	10.9
10.916	10.59
11.103	9.94
11.297	9.97
11.497	8.23
11.704	7.03
11.92	6.21
12.143	5.61
12.375	4.71
12.616	4.4
12.866	4.34
13.126	4.09
13.398	4.13
13.68	4.06
13.975	3.66
