Name: Altered volcanic tuff
Type: Rock
Class: Igneous
Subclass: Felsic
Particle Size: Whole rock chips
Sample No.: Cup6
Owner: USGS
Origin: Cuprite, Nevada
Description: Altered volcanic tuff, white
Measurement: Directional Hemispherical Reflectance
X Units: Wavelength (micrometers)
Y Units: Reflectance (percent)
wavelength	value
0.4	14.8891
0.424	16.4326
0.448	18.171
0.472	19.397
0.496	20.5817
0.52	22.0857
0.544	23.7576
0.568	25.4736
0.592	26.7792
0.616	27.5933
0.64	28.2054
0.664	28.7968
0.688	29.3481
0.712	30.2994
0.736	31.2556
0.76	32.0564
0.784	32.8095
0.808	33.5617
0.832	34.2726
0.856	34.8874
0.88	35.5719
0.904	36.2007
0.928	36.4756
0.952	36.967
0.976	37.5143
1	38.1792
1.024	38.7135
1.048	39.2438
1.072	39.8273
1.096	40.3071
1.12	40.8415
1.144	41.2728
1.168	41.5863
1.192	42.0371
1.216	42.5936
1.24	43.1092
1.264	43.6619
1.288	44.1366
1.312	44.4779
1.336	44.554
1.36	44.3121
1.384	43.2723
1.408	40.0577
1.432	38.5735
1.456	38.8512
1.48	39.4083
1.504	40.3474
1.528	41.2004
1.552	41.8626
1.576	42.4035
1.6	42.9288
1.624	43.4665
1.648	43.926
1.672	44.2527
1.696	44.0928
1.72	43.9824
1.744	43.9199
1.768	43.793
1.792	44.0916
1.816	44.2805
1.84	44.4171
1.864	43.7851
1.888	39.0495
1.912	32.086
1.936	30.6214
1.96	31.9626
1.984	34.0774
2.008	35.9398
2.032	36.9488
2.056	37.0983
2.08	37.3135
2.104	37.3625
2.128	37.8969
2.152	37.472
2.176	35.8408
2.2	33.6129
2.224	32.566
2.248	32.059
2.272	31.5678
2.296	31.4081
2.32	31.5326
2.344	32.0235
2.368	31.5495
2.392	31.2226
2.416	29.7976
2.44	27.9102
2.464	25.7445
2.488	24.593
2.504	23.8239
2.511	24.1741
2.519	23.7415
2.526	23.0617
2.533	23.0823
2.541	22.5467
2.548	22.8763
2.556	22.6909
2.563	22.7218
2.571	22.4643
2.579	22.3304
2.586	22.2377
2.594	21.9081
2.602	21.9802
2.61	21.3313
2.618	21.3313
2.626	20.5176
2.634	20.1777
2.642	19.4258
2.65	18.6327
2.658	17.7881
2.666	17.1907
2.675	15.244
2.683	13.8638
2.691	11.2579
2.7	8.7962
2.708	7.4469
2.717	5.8298
2.725	5.0882
2.734	4.6247
2.742	3.9449
2.751	3.7389
2.76	3.3063
2.769	3.3166
2.778	3.3475
2.787	3.296
2.796	3.2342
2.805	3.3166
2.814	3.2033
2.823	3.0179
2.832	3.3063
2.842	2.8325
2.851	2.6574
2.86	2.8016
2.87	2.678
2.879	2.5853
2.889	2.8016
2.899	2.6059
2.909	2.5853
2.918	2.5441
2.928	2.7192
2.938	2.6986
2.948	2.6162
2.958	2.7913
2.968	2.6986
2.979	2.8325
2.989	2.472
2.999	2.5544
3.01	2.9458
3.02	2.9046
3.031	2.8222
3.042	3.0076
3.052	2.8428
3.063	2.9252
3.074	3.1209
3.085	3.0179
3.096	2.9561
3.107	3.2857
3.118	3.2754
3.13	3.3681
3.141	3.3681
3.152	3.4711
3.164	3.4917
3.176	3.8007
3.187	3.6977
3.199	3.7698
3.211	3.7801
3.223	3.9964
3.235	3.9346
3.247	4.0891
3.259	4.0891
3.272	4.2642
3.284	4.2127
3.297	4.4496
3.309	4.532
3.322	4.635
3.335	4.6556
3.348	4.6659
3.361	4.8101
3.374	4.7689
3.387	4.8204
3.401	4.738
3.414	4.6659
3.428	4.7998
3.441	5.0882
3.455	5.3148
3.469	5.5105
3.483	5.5826
3.497	5.8092
3.511	5.9122
3.525	6.6229
3.54	6.7568
3.554	6.9216
3.569	7.2718
3.584	7.1997
3.599	7.5705
3.614	7.7765
3.629	7.9516
3.644	8.0752
3.66	8.1679
3.675	8.3121
3.691	8.3945
3.707	8.2503
3.723	8.3533
3.739	8.3842
3.755	8.5284
3.771	8.7035
3.788	8.8992
3.805	8.9507
3.822	8.8477
3.838	8.8168
3.856	8.8065
3.873	8.755
3.89	8.8992
3.908	8.9816
3.926	8.858
3.944	8.446
3.962	7.9619
3.98	7.8795
3.998	8.0237
4.017	8.343
4.036	8.6829
4.055	8.7962
4.074	8.8477
4.093	8.5902
4.112	8.3636
4.132	8.0546
4.152	7.8074
4.172	7.6014
4.192	7.313
4.213	7.3027
4.233	7.1379
4.254	7.004
4.275	6.8289
4.296	6.6332
4.318	6.7465
4.34	6.5508
4.361	6.1594
4.384	5.6547
4.406	5.2015
4.428	5.047
4.451	4.8204
4.474	4.6865
4.498	4.7998
4.521	5.4178
4.545	5.6959
4.569	5.9328
4.593	5.768
4.618	5.6753
4.643	5.253
4.668	4.738
4.693	4.8616
4.719	5.0058
4.744	4.9852
4.771	4.8204
4.797	4.6453
4.824	4.3878
4.851	4.0994
4.878	3.6771
4.906	3.3063
4.934	3.1621
4.962	3.0488
4.991	2.8325
5.02	2.9355
5.049	2.9664
5.079	2.884
5.109	2.8634
5.139	2.8531
5.17	2.8222
5.201	2.781
5.233	2.6059
5.265	2.5338
5.297	2.4102
5.33	2.369
5.363	2.369
5.396	2.5235
5.43	2.5235
5.464	2.5132
5.499	2.3896
5.534	2.3072
5.57	2.2145
5.606	2.2145
5.643	2.2145
5.68	2.2248
5.717	2.0497
5.755	2.0291
5.794	1.9158
5.833	1.8746
5.873	1.751
5.913	1.5759
5.954	1.5553
5.995	1.4832
6.037	1.4832
6.079	1.4729
6.122	1.4214
6.166	1.3802
6.21	1.4008
6.255	1.4626
6.301	1.442
6.347	1.442
6.394	1.5656
6.442	1.4935
6.49	1.4523
6.539	1.3699
6.589	1.2772
6.64	1.3596
6.691	1.2463
6.743	1.1742
6.796	1.0815
6.85	1.0712
6.905	1.0094
6.96	1.0403
7.017	0.9167
7.074	0.927
7.133	0.8755
7.192	0.7931
7.252	0.8034
7.314	0.7622
7.376	0.7622
7.44	0.7828
7.504	0.824
7.57	0.927
7.637	1.2154
7.705	1.7819
7.774	2.4411
7.845	3.4917
7.917	5.6444
7.99	8.7653
8.064	13.0089
8.14	19.0962
8.218	20.9811
8.297	19.8584
8.377	18.128
8.459	17.3246
8.543	15.7899
8.628	11.639
8.715	15.6148
8.804	16.2637
8.894	16.7993
8.987	17.3864
9.081	18.3443
9.178	19.467
9.276	19.8584
9.377	14.935
9.479	10.1455
9.585	8.7241
9.692	7.6426
9.802	6.9525
9.914	6.283
10.029	5.6547
10.147	5.253
10.268	4.944
10.391	4.5526
10.518	4.3672
10.647	4.1509
10.78	3.9243
10.916	3.8625
11.056	3.7183
11.199	3.605
11.346	3.4093
11.497	3.2857
11.652	3.0694
11.811	2.6574
11.975	2.2969
12.143	1.8025
12.316	1.8334
12.494	5.1191
12.677	4.4393
12.866	5.0161
13.06	3.6977
13.261	3.2857
13.467	2.9149
13.68	2.8119
13.9	2.5544
