Name: Altered volcanic tuff
Type: Rock
Class: Igneous
Subclass: Felsic
Particle Size: Whole rock chips
Sample No.: Cup1
Owner: USGS
Origin: Cuprite, Nevada
Description: Altered volcanic tuff, white
Measurement: Directional Hemispherical Reflectance
X Units: Wavelength (micrometers)
Y Units: Reflectance (percent)
wavelength	value
0.4	29.1803
0.424	31.4311
0.448	33.4072
0.472	34.6035
0.496	35.6186
0.52	36.658
0.544	37.5842
0.568	38.3026
0.592	38.8723
0.616	39.1756
0.64	39.4132
0.664	39.5725
0.688	39.8161
0.712	39.9752
0.736	40.1231
0.76	40.2638
0.784	40.3772
0.808	40.4606
0.832	40.5609
0.856	40.0368
0.88	39.7899
0.904	39.7364
0.928	39.5344
0.952	39.5707
0.976	39.5757
1	39.7286
1.024	39.9811
1.048	40.157
1.072	40.2521
1.096	40.3157
1.12	40.2531
1.144	40.1624
1.168	40.037
1.192	40.0719
1.216	40.1193
1.24	39.9776
1.264	39.6548
1.288	39.8892
1.312	39.744
1.336	39.2764
1.36	38.4574
1.384	36.7831
1.408	34.4993
1.432	32.562
1.456	33.2539
1.48	31.5887
1.504	34.7933
1.528	35.8278
1.552	36.3665
1.576	36.6114
1.6	36.7641
1.624	36.8002
1.648	36.8002
1.672	36.5949
1.696	36.3709
1.72	35.8899
1.744	34.5128
1.768	33.357
1.792	34.4837
1.816	35.0808
1.84	34.9208
1.864	33.8105
1.888	29.3671
1.912	25.6726
1.936	26.1325
1.96	26.922
1.984	27.7034
2.008	28.0851
2.032	28.5353
2.056	28.5461
2.08	28.5339
2.104	27.9869
2.128	26.1198
2.152	24.284
2.176	23.5362
2.2	24.5234
2.224	25.9174
2.248	27.5176
2.272	27.5213
2.296	26.8106
2.32	24.4451
2.344	25.7495
2.368	25.6118
2.392	22.5153
2.416	20.8997
2.44	19.5413
2.464	18.6101
2.488	18.4573
2.504	17.1186
2.511	16.9538
2.519	16.6757
2.526	15.9753
2.533	16.1401
2.541	15.4912
2.548	15.6457
2.556	15.7281
2.563	15.2234
2.571	14.9659
2.579	14.4406
2.586	14.5024
2.594	14.1007
2.602	14.0183
2.61	13.9565
2.618	13.3076
2.626	12.8441
2.634	12.1128
2.642	11.4742
2.65	10.0631
2.658	9.4039
2.666	7.519
2.675	6.0152
2.683	4.8719
2.691	3.6565
2.7	2.7604
2.708	2.8222
2.717	2.781
2.725	2.2248
2.734	1.9467
2.742	2.575
2.751	2.8222
2.76	2.3896
2.769	3.5638
2.778	3.4608
2.787	3.4711
2.796	3.5432
2.805	3.5741
2.814	3.6565
2.823	3.5226
2.832	3.5226
2.842	3.4299
2.851	3.6256
2.86	3.3166
2.87	3.3372
2.879	3.3887
2.889	3.2445
2.899	3.4711
2.909	3.2548
2.918	3.1827
2.928	3.2239
2.938	3.3372
2.948	3.2857
2.958	3.3166
2.968	3.2445
2.979	3.3784
2.989	3.2857
2.999	3.3578
3.01	3.5329
3.02	3.6977
3.031	3.7183
3.042	3.8522
3.052	3.5535
3.063	3.6153
3.074	3.8934
3.085	3.8419
3.096	3.9964
3.107	3.9449
3.118	4.0994
3.13	4.0994
3.141	4.3672
3.152	4.3878
3.164	4.7586
3.176	4.7689
3.187	4.8616
3.199	4.9955
3.211	5.3766
3.223	5.4796
3.235	5.6856
3.247	5.7783
3.259	6.0358
3.272	6.3654
3.284	6.5096
3.297	6.6229
3.309	7.1585
3.322	7.4881
3.335	7.5499
3.348	7.7662
3.361	8.2915
3.374	8.2606
3.387	8.6417
3.401	8.961
3.414	9.0949
3.428	9.6305
3.441	10.2279
3.455	10.7017
3.469	11.1652
3.483	11.4124
3.497	11.6905
3.511	12.2982
3.525	12.9883
3.54	13.3488
3.554	13.9462
3.569	14.3376
3.584	14.6054
3.599	15.1513
3.614	15.4706
3.629	15.8826
3.644	16.2328
3.66	16.6757
3.675	16.5315
3.691	16.1916
3.707	16.4388
3.723	17.5306
3.739	17.6233
3.755	18.2825
3.771	18.6739
3.788	19.1271
3.805	19.3537
3.822	19.5391
3.838	19.5494
3.856	19.6421
3.873	19.6524
3.89	19.7966
3.908	19.7657
3.926	19.7245
3.944	19.5494
3.962	19.3949
3.98	19.2919
3.998	19.1374
4.017	18.849
4.036	18.5709
4.055	18.128
4.074	17.7881
4.093	17.4276
4.112	16.8817
4.132	16.5109
4.152	15.9753
4.172	15.7384
4.192	15.347
4.213	15.2749
4.233	15.2955
4.254	14.5539
4.275	14.2449
4.296	13.6166
4.318	12.978
4.34	12.2055
4.361	11.5978
4.384	10.9798
4.406	10.6502
4.428	10.5575
4.451	10.5369
4.474	10.2691
4.498	10.3206
4.521	10.6399
4.545	10.5987
4.569	10.4236
4.593	9.9807
4.618	9.3318
4.643	8.6314
4.668	8.4048
4.693	8.3018
4.719	8.4254
4.744	8.2194
4.771	7.828
4.797	7.1482
4.824	6.3963
4.851	5.5929
4.878	4.6659
4.906	3.8419
4.934	3.3063
4.962	2.9973
4.991	2.8634
5.02	2.8325
5.049	2.8119
5.079	2.8531
5.109	2.7913
5.139	2.6986
5.17	2.678
5.201	2.5647
5.233	2.3896
5.265	2.1733
5.297	2.0703
5.33	2.0085
5.363	2.1115
5.396	2.2557
5.43	2.3793
5.464	2.3587
5.499	2.3381
5.534	2.4102
5.57	2.4308
5.606	2.3175
5.643	2.369
5.68	2.3999
5.717	2.3381
5.755	2.369
5.794	2.3072
5.833	2.3381
5.873	2.2763
5.913	2.1527
5.954	2.0291
5.995	1.8437
6.037	1.751
6.079	1.6583
6.122	1.5862
6.166	1.5862
6.21	1.6171
6.255	1.6171
6.301	1.8231
6.347	1.8746
6.394	1.9158
6.442	1.8334
6.49	1.8231
6.539	1.7098
6.589	1.6171
6.64	1.5347
6.691	1.5965
6.743	1.4935
6.796	1.3493
6.85	1.4008
6.905	1.3802
6.96	1.3184
7.017	1.2875
7.074	1.2051
7.133	1.2257
7.192	1.1845
7.252	1.1845
7.314	1.2154
7.376	1.2566
7.44	1.2978
7.504	1.4317
7.57	1.5141
7.637	1.6377
7.705	1.9982
7.774	2.4926
7.845	3.3166
7.917	4.4702
7.99	5.871
8.064	7.6014
8.14	10.2279
8.218	11.9686
8.297	12.7514
8.377	12.9162
8.459	15.2646
8.543	17.0259
8.628	17.51
8.715	21.939
8.804	25.5337
8.894	28.3971
8.987	27.1714
9.081	29.7155
9.178	29.8906
9.276	25.8736
9.377	20.7339
9.479	17.4276
9.585	16.0886
9.692	14.6878
9.802	12.4527
9.914	11.5463
10.029	9.4966
10.147	7.7147
10.268	6.6847
10.391	5.6547
10.518	5.1912
10.647	5.6856
10.78	5.5517
10.916	6.5096
11.056	5.871
11.199	5.1809
11.346	4.6968
11.497	4.3466
11.652	3.9449
11.811	3.5123
11.975	3.0694
12.143	2.4823
12.316	2.2351
12.494	4.4702
12.677	5.2015
12.866	5.1912
13.06	4.12
13.261	3.7492
13.467	3.4608
13.68	3.1621
13.9	2.781
