Name: Dolomite  CaMgCO3
Type: Rock
Class: Sedimentary
Subclass: dolomite
Particle Size: Whole rock chips
Sample No.: ro368
Owner: Larry Rowan, USGS
Origin: Ronda, Spain
Description: bluish gray dolomite
Measurement: Reflectance
X Units: Wavelength (micrometers)
Y Units: Reflectance (percent)
wavelength	value
0.4	36.3
0.408	37
0.416	37.5
0.424	37.7
0.432	38.8
0.44	39.7
0.448	40
0.456	40.5
0.464	40.3
0.472	40.8
0.48	41.3
0.488	41.3
0.496	42.4
0.504	43
0.512	43
0.52	43.3
0.528	44.4
0.536	45.1
0.544	45.3
0.552	46
0.56	45.9
0.568	46.2
0.576	46.2
0.584	47.3
0.592	47.7
0.6	47.9
0.608	47.7
0.616	47.4
0.624	48.2
0.632	48.6
0.64	48.6
0.648	49
0.656	49.3
0.664	49.9
0.672	49.9
0.68	50.9
0.688	50.8
0.696	51.5
0.704	51.6
0.712	52
0.72	52.1
0.728	52.6
0.736	52.7
0.744	52.6
0.752	53.4
0.76	53.5
0.768	54
0.776	53.5
0.784	54.1
0.792	54
0.8	55.1
0.832	54.9
0.864	55.3
0.896	55.6
0.928	55.7
0.96	55.2
0.992	55.7
1.024	56.2
1.056	56.4
1.088	57.5
1.12	57.9
1.152	58.5
1.184	58.5
1.216	59
1.248	59.1
1.28	59.6
1.312	59.7
1.344	59.1
1.376	56.3
1.408	52.5
1.44	51.8
1.472	53.1
1.504	55.6
1.536	57.1
1.568	58.9
1.6	58.9
1.632	59.2
1.664	59.3
1.696	58.7
1.728	58
1.76	58.4
1.792	57.1
1.824	54.6
1.856	50.9
1.888	43.6
1.92	38.7
1.952	39.4
1.984	42
2.016	46.5
2.048	48.5
2.08	49.8
2.102	52.64
2.109	51.88
2.116	52.5
2.123	51.45
2.13	50.49
2.137	50.45
2.144	49.76
2.151	50.1
2.158	51.18
2.165	51.05
2.173	51.68
2.18	51.26
2.187	51.28
2.195	50.15
2.202	48.84
2.21	47.39
2.217	46.83
2.225	45.91
2.232	43.96
2.24	42.1
2.248	39.88
2.256	37.6
2.264	35.15
2.272	34.04
2.28	33.05
2.288	31.7
2.296	30.52
2.304	29.29
2.312	28.29
2.32	27.3
2.329	27.57
2.337	29.26
2.346	32.48
2.354	37.08
2.363	40.68
2.371	41.91
2.38	42.04
2.389	41.54
2.398	40.26
2.406	39.35
2.415	37.9
2.424	35.27
2.434	32.86
2.443	29.97
2.452	27.9
2.461	26.25
2.471	24.91
2.48	24.12
2.49	22.27
2.499	21.14
2.509	20.44
2.519	19.91
2.528	20.54
2.538	22.49
2.548	27.14
2.558	31.28
2.569	34.04
2.579	35.9
2.589	36.73
2.599	37.21
2.61	37.31
2.62	36.8
2.631	36.03
2.642	35.14
2.653	33.52
2.664	32.01
2.675	29.28
2.686	26.03
2.697	22.86
2.708	19.4
2.719	15.5
2.731	13.94
2.742	12.24
2.754	11.15
2.766	10.4
2.778	9.83
2.79	9.35
2.802	9.25
2.814	8.7
2.826	8.57
2.838	8.36
2.851	8.33
2.864	7.73
2.876	7.79
2.889	7.41
2.902	7.34
2.915	7.31
2.928	7.27
2.942	7.06
2.955	7.26
2.968	7.13
2.982	7.19
2.996	7.34
3.01	7.3
3.024	7.42
3.038	7.45
3.052	7.37
3.067	7.52
3.081	7.53
3.096	7.74
3.111	7.87
3.126	8.16
3.141	8.3
3.156	8.81
3.172	9.02
3.187	9.31
3.203	9.55
3.219	9.62
3.235	9.72
3.251	9.78
3.268	9.32
3.284	8.48
3.301	5.9
3.318	5.9
3.335	5.59
3.352	5.29
3.37	5.89
3.387	5.56
3.405	5.3
3.423	5.33
3.441	4.7
3.46	4.78
3.478	4.92
3.497	5.81
3.516	7.82
3.535	10.16
3.554	11.26
3.574	12.9
3.594	14.35
3.614	14.99
3.634	15.17
3.655	15.21
3.675	14.81
3.696	13.78
3.717	12.61
3.739	10.47
3.761	7.73
3.782	6.11
3.805	5.24
3.827	5.66
3.85	5.25
3.873	4.7
3.896	4.51
3.92	4.09
3.944	3.82
3.968	3.9
3.992	4.8
4.017	6.23
4.042	7.72
4.067	9.32
4.093	10.48
4.119	11.22
4.145	11.65
4.172	12.66
4.199	12.96
4.226	12.4
4.254	11.93
4.282	11.44
4.311	11.75
4.34	12.83
4.369	13.55
4.398	11.94
4.428	10.55
4.459	10.96
4.49	11.04
4.521	9.63
4.553	8.92
4.585	7.9
4.618	7.12
4.651	7
4.684	8.37
4.719	10.33
4.753	11.35
4.788	11.62
4.824	11.6
4.86	11.57
4.897	11.28
4.934	10.98
4.972	10.75
5.01	10.31
5.049	8.18
5.089	8.4
5.129	8.51
5.17	7.73
5.212	6.9
5.254	5.93
5.297	5.2
5.341	4.65
5.385	3.98
5.43	3.08
5.476	2.3
5.523	2.17
5.57	2.21
5.618	2.37
5.667	2.32
5.717	2.11
5.768	2.01
5.82	1.88
5.873	1.73
5.926	1.55
5.981	1.37
6.037	1.33
6.094	1.46
6.151	2.14
6.21	3.58
6.27	7.24
6.332	18.56
6.394	29.78
6.458	33.07
6.523	30.87
6.589	27.71
6.657	24.15
6.726	21.84
6.796	20.17
6.868	18.79
6.942	18.19
7.017	17.62
7.094	13.02
7.172	10.48
7.252	9.22
7.334	8.64
7.418	8.28
7.504	7.92
7.592	7.7
7.682	7.42
7.774	7.34
7.869	7.33
7.965	6.96
8.064	6.74
8.166	6.78
8.27	6.87
8.377	6.3
8.487	6.4
8.599	6.47
8.715	6.5
8.834	6.83
8.956	6.84
9.081	6.13
9.21	6.47
9.343	6.49
9.479	6.61
9.62	6.35
9.765	6.13
9.914	5.93
10.068	5.8
10.227	6
10.391	6.09
10.56	5.88
10.735	6.03
10.916	6.43
11.103	14.56
11.297	13.11
11.497	6.61
11.704	5.31
11.92	6.08
12.143	5.7
12.375	5.39
12.616	5.07
12.866	4.79
13.126	4.42
13.398	3.44
13.68	3.74
13.975	3.69
