Name: Dolomite  CaMgCO3
Type: Rock
Class: Sedimentary
Subclass: dolomite
Particle Size: Whole rock chips
Sample No.: ro350c
Owner: Larry Rowan, USGS
Origin: Ronda, Spain
Description: white dolomite
Measurement: Reflectance
X Units: Wavelength (micrometers)
Y Units: Reflectance (percent)
wavelength	value
0.4	36.1
0.408	36.6
0.416	37.1
0.424	38
0.432	39.0333
0.44	39.8667
0.448	40.5
0.456	40.8667
0.464	41.0667
0.472	41.4
0.48	41.9
0.488	42.2
0.496	43.1667
0.504	43.7
0.512	44.2
0.52	45.2667
0.528	45.8
0.536	46.5667
0.544	47
0.552	47.6
0.56	48.3
0.568	48.9333
0.576	49.4
0.584	49.7333
0.592	50.1
0.6	50.3
0.608	50.3333
0.616	50.5
0.624	51.2333
0.632	51.3
0.64	51.6
0.648	52.0333
0.656	52.4667
0.664	52.6667
0.672	53.0333
0.68	53.3333
0.688	53.3667
0.696	54.0333
0.704	54.1333
0.712	54.4333
0.72	54.6333
0.728	55.1
0.736	55.2
0.744	55.4
0.752	55.5333
0.76	55.7
0.768	56.1333
0.776	55.7333
0.784	55.9333
0.792	56
0.8	56.4
0.832	56.6667
0.864	57.1333
0.896	57.5667
0.928	57.8667
0.96	58.2333
0.992	58.5
1.024	58.1333
1.056	59
1.088	59.6333
1.12	60.1333
1.152	60.8667
1.184	61.1333
1.216	61.2667
1.248	61.4
1.28	62.3
1.312	63.2333
1.344	62.8333
1.376	60.9
1.408	59.7
1.44	59.5333
1.472	60.5333
1.504	61.4667
1.536	62.8333
1.568	63.9333
1.6	64.2333
1.632	64.2667
1.664	64.0333
1.696	63.4667
1.728	63.1333
1.76	63.6333
1.792	62.9
1.824	60.5
1.856	57.9
1.888	54.4667
1.92	50.6
1.952	50.6667
1.984	52.6667
2.016	56.3
2.048	57.5667
2.08	57.8
2.102	56.2
2.109	56.5533
2.116	55.4067
2.123	55.0067
2.13	53.9933
2.137	53.3033
2.144	53.2933
2.151	53.21
2.158	53.9933
2.165	54.48
2.173	54.4667
2.18	54.4533
2.187	54.2133
2.195	52.97
2.202	51.71
2.21	50.51
2.217	49.34
2.225	48.0833
2.232	46.8733
2.24	44.6067
2.248	42.5633
2.256	39.7933
2.264	37.76
2.272	36.21
2.28	35.4833
2.288	34.34
2.296	33.3333
2.304	31.96
2.312	30.91
2.32	30.35
2.329	30.5467
2.337	33.0233
2.346	36.81
2.354	41.96
2.363	45.09
2.371	46.25
2.38	45.43
2.389	44.7267
2.398	43.48
2.406	42.49
2.415	40.9633
2.424	38.3167
2.434	35.6433
2.443	32.7867
2.452	30.2933
2.461	28.9
2.471	28.0933
2.48	27.12
2.49	25.3533
2.499	23.9033
2.509	23.02
2.519	22.56
2.528	23.8133
2.538	27.08
2.548	32.5667
2.558	36.77
2.569	39.5067
2.579	41.3733
2.589	42.42
2.599	42.94
2.61	42.94
2.62	42.5567
2.631	41.61
2.642	40.66
2.653	39.38
2.664	37.5733
2.675	34.8067
2.686	30.9933
2.697	27.9067
2.708	24.1433
2.719	19.2633
2.731	17.8333
2.742	15.7267
2.754	14.03
2.766	12.7533
2.778	12.27
2.79	12.0167
2.802	11.59
2.814	11.2633
2.826	10.68
2.838	10.3667
2.851	9.9267
2.864	9.58
2.876	9.32
2.889	9.0033
2.902	8.9
2.915	8.7267
2.928	8.6467
2.942	8.6367
2.955	8.5133
2.968	8.6367
2.982	8.6133
2.996	8.62
3.01	8.8367
3.024	8.8767
3.038	8.8267
3.052	8.8767
3.067	9
3.081	9.0567
3.096	9.3033
3.111	9.6
3.126	9.8467
3.141	10.15
3.156	10.74
3.172	11.2367
3.187	11.59
3.203	11.8333
3.219	11.83
3.235	11.9033
3.251	11.6
3.268	10.92
3.284	9.6
3.301	6.09
3.318	6.0467
3.335	6.0333
3.352	5.8633
3.37	6.3933
3.387	6.0067
3.405	5.7733
3.423	5.42
3.441	4.92
3.46	4.9267
3.478	5.1167
3.497	6.43
3.516	9.4033
3.535	12.3
3.554	13.62
3.574	15.88
3.594	17.1467
3.614	17.7633
3.634	17.98
3.655	17.8567
3.675	17.34
3.696	15.98
3.717	14.5633
3.739	12.2567
3.761	8.4867
3.782	6.5767
3.805	5.5633
3.827	6.3733
3.85	5.7933
3.873	5.0333
3.896	4.76
3.92	4.2733
3.944	4.02
3.968	3.96
3.992	5.1567
4.017	7.1533
4.042	9.48
4.067	11.5667
4.093	13.24
4.119	14.1
4.145	14.4633
4.172	15.7667
4.199	16.04
4.226	15.0433
4.254	14.1267
4.282	13.5933
4.311	14.27
4.34	16.0867
4.369	16.98
4.398	15.01
4.428	13.1033
4.459	13.84
4.49	14.37
4.521	12.3033
4.553	11.2733
4.585	9.74
4.618	8.72
4.651	8.87
4.684	11.4467
4.719	14.0067
4.753	15.1967
4.788	15.54
4.824	15.65
4.86	15.6033
4.897	15.35
4.934	15.0133
4.972	14.5633
5.01	13.9233
5.049	10.81
5.089	11.5533
5.129	11.4667
5.17	10.3433
5.212	9.1367
5.254	7.7833
5.297	6.68
5.341	5.9833
5.385	4.9533
5.43	3.53
5.476	2.3733
5.523	2.2867
5.57	2.34
5.618	2.6567
5.667	2.64
5.717	2.39
5.768	2.3033
5.82	2.19
5.873	2.0167
5.926	1.8333
5.981	1.6567
6.037	1.66
6.094	1.8367
6.151	2.5467
6.21	3.9433
6.27	7.39
6.332	18.16
6.394	27.4433
6.458	28.0967
6.523	25.4433
6.589	22.3733
6.657	19.3167
6.726	17.4167
6.796	16.1633
6.868	15.2633
6.942	14.9867
7.017	14.7933
7.094	10.6233
7.172	8.69
7.252	7.7667
7.334	7.4567
7.418	7.27
7.504	7.0167
7.592	6.9467
7.682	6.6667
7.774	6.7167
7.869	6.6967
7.965	6.41
8.064	6.1233
8.166	6.1733
8.27	6.4933
8.377	5.7967
8.487	5.94
8.599	6.0867
8.715	6.1133
8.834	6.4033
8.956	6.6267
9.081	5.88
9.21	6.4533
9.343	6.5833
9.479	6.7967
9.62	6.4733
9.765	6.46
9.914	6.1933
10.068	6.1933
10.227	6.56
10.391	6.9367
10.56	6.9367
10.735	7.2767
10.916	7.99
11.103	15.5733
11.297	11.3933
11.497	5.9667
11.704	4.9
11.92	6.3967
12.143	6.2267
12.375	5.8833
12.616	5.4333
12.866	5.0867
13.126	4.3667
13.398	3.1533
13.68	3.28
13.975	3.08
