Name: Rivadavite Na6MgB24O40 * 22H2O
Type: Mineral
Class: Borate
Subclass: None
Particle Size: Unsieved coarse powder
Sample No.: NMNH 170164
Owner: Smithsonian Institute, National Museum of Nat. History
Origin: Tinclayu, Salta, Argentina
Description: Rivadavite from Tinclayu, Salta, Argentina
Measurement: Directional Hemispherical Reflectance
X Units: Wavelength (micrometers)
Y Units: Reflectance (percent)
wavelength	value
0.4	63.4846
0.414	63.538
0.428	63.654
0.442	63.6799
0.456	63.7668
0.47	63.9161
0.484	64.0455
0.498	64.1179
0.512	64.249
0.526	64.3586
0.54	64.4531
0.554	64.6151
0.568	64.7664
0.582	64.9244
0.596	64.9981
0.61	64.9321
0.624	64.8345
0.638	64.8595
0.652	64.8355
0.666	64.7303
0.68	64.6572
0.694	64.4652
0.708	64.3125
0.722	64.0321
0.736	63.5055
0.75	62.4157
0.764	62.1283
0.778	62.4426
0.792	62.5529
0.806	62.4359
0.82	62.128
0.834	61.6942
0.848	60.987
0.862	59.5577
0.876	59.5957
0.89	59.2609
0.904	58.4362
0.918	57.9047
0.932	56.8517
0.946	55.0806
0.96	53.0318
0.974	48.6335
0.988	45.5633
1.002	48.5901
1.016	51.2036
1.03	52.8093
1.044	54.0781
1.058	54.7693
1.072	55.0946
1.086	54.9787
1.1	54.4826
1.114	53.9916
1.128	53.4191
1.142	52.3026
1.156	48.0825
1.17	44.0444
1.184	44.1486
1.198	44.1156
1.212	44.9517
1.226	44.3965
1.24	43.6117
1.254	41.9907
1.268	42.0615
1.282	42.2877
1.296	41.6904
1.31	39.8421
1.324	36.7741
1.338	33.0162
1.352	32.6625
1.366	32.6413
1.38	31.4091
1.394	26.703
1.408	19.0429
1.422	15.8574
1.436	13.1458
1.45	12.3043
1.464	14.6802
1.478	14.8693
1.492	15.659
1.506	16.3542
1.52	16.6523
1.534	17.1956
1.548	17.2829
1.562	17.379
1.576	17.2869
1.59	17.3541
1.604	17.6425
1.618	17.7558
1.632	17.9596
1.646	18.022
1.66	17.9606
1.674	17.8754
1.688	17.7841
1.702	17.624
1.716	17.4622
1.73	17.1794
1.744	16.7038
1.758	16.3109
1.772	15.9092
1.786	15.9243
1.8	16.0875
1.814	16.4186
1.828	16.4403
1.842	16.7684
1.856	16.5321
1.87	16.092
1.884	14.5673
1.898	12.1412
1.912	9.1472
1.926	7.5154
1.94	7.6028
1.954	8.3991
1.968	8.8857
1.982	9.8964
1.996	10.354
2.01	10.6157
2.024	10.6183
2.038	10.6473
2.052	10.5818
2.066	10.5351
2.08	9.9593
2.094	9.4791
2.108	9.2409
2.122	9.2437
2.136	9.0386
2.15	8.1838
2.164	7.4026
2.178	7.6433
2.192	7.8156
2.206	8.1813
2.22	8.6643
2.234	9.1084
2.248	9.4427
2.262	9.6138
2.276	9.8329
2.29	10.1207
2.304	10.4411
2.318	10.4856
2.332	10.1305
2.346	9.6503
2.36	9.2715
2.374	8.7803
2.388	8.1428
2.402	7.5223
2.416	6.9958
2.43	6.3697
2.444	6.2946
2.458	6.6595
2.472	6.6972
2.486	6.9111
2.5	7.1173
2.509	7.0143
2.517	6.9731
2.526	6.6641
2.535	6.7568
2.543	6.7156
2.552	7.3336
2.561	7.2203
2.57	6.9731
2.579	7.1379
2.588	7.0246
2.597	7.0658
2.606	6.5199
2.615	6.4169
2.624	6.3963
2.634	5.9843
2.643	5.8298
2.653	5.7371
2.662	5.4693
2.672	4.7998
2.681	4.8204
2.691	3.8419
2.701	3.8213
2.711	3.2445
2.721	2.8943
2.731	2.3587
2.741	2.1321
2.751	1.9055
2.761	1.7922
2.772	1.648
2.782	1.8231
2.793	1.4935
2.803	1.5862
2.814	1.7716
2.825	2.5441
2.835	2.575
2.846	2.2866
2.857	2.2763
2.868	2.1012
2.879	2.2557
2.891	2.3999
2.902	2.5647
2.913	2.5956
2.925	2.3999
2.937	2.369
2.948	2.6883
2.96	2.781
2.972	2.7089
2.984	2.8222
2.996	3.0694
3.008	3.3372
3.02	3.2239
3.033	3.2445
3.045	3.3372
3.058	3.3681
3.07	3.2548
3.083	3.2033
3.096	3.1518
3.109	3.2548
3.122	3.0591
3.135	3.193
3.149	3.1827
3.162	3.2033
3.176	3.1003
3.189	3.1827
3.203	3.193
3.217	3.2445
3.231	3.0076
3.245	3.0591
3.259	3.1209
3.274	3.09
3.288	3.0179
3.303	3.09
3.318	2.9767
3.333	3.1312
3.348	3.1621
3.363	3.1106
3.378	3.1827
3.394	3.1827
3.409	3.2239
3.425	3.2239
3.441	3.2445
3.457	3.3063
3.473	3.3372
3.49	3.2239
3.506	3.3372
3.523	3.3372
3.54	3.296
3.557	3.399
3.574	3.3166
3.591	3.4299
3.609	3.4299
3.626	3.4814
3.644	3.4917
3.662	3.6256
3.68	3.5123
3.699	3.502
3.717	3.5535
3.736	3.6256
3.755	3.4917
3.774	3.605
3.794	3.5741
3.813	3.4299
3.833	3.5123
3.853	3.4711
3.873	3.4608
3.893	3.4402
3.914	3.3475
3.935	3.4196
3.956	3.4711
3.977	3.4917
3.998	3.502
4.02	3.5123
4.042	3.4608
4.064	3.4402
4.086	3.4917
4.109	3.399
4.132	3.3372
4.155	3.3166
4.179	3.2754
4.202	3.2857
4.226	3.2136
4.251	3.2548
4.275	3.3269
4.3	3.2754
4.325	3.1827
4.35	3.2033
4.376	3.1724
4.402	3.2651
4.428	3.193
4.455	3.2651
4.482	3.2548
4.509	3.2033
4.537	3.1621
4.565	3.1209
4.593	3.1415
4.622	3.09
4.651	3.0797
4.68	2.987
4.71	3.0076
4.74	3.0385
4.771	2.9973
4.802	3.0385
4.833	3.0179
4.865	3.0179
4.897	2.9355
4.929	2.9355
4.962	2.8531
4.996	2.8325
5.03	2.8119
5.064	2.7604
5.099	2.6986
5.134	2.7192
5.17	2.6368
5.206	2.5956
5.243	2.4823
5.281	2.4617
5.319	2.3896
5.357	2.3381
5.396	2.2557
5.436	2.2042
5.476	2.1218
5.517	2.06
5.558	2.0291
5.6	1.957
5.643	1.8746
5.686	1.7922
5.73	1.6892
5.775	1.5553
5.82	1.3905
5.866	1.2978
5.913	1.2978
5.96	1.2257
6.009	1.1639
6.058	1.2669
6.108	1.133
6.159	1.133
6.21	1.1742
6.263	1.0712
6.316	0.9579
6.37	0.8652
6.426	0.7931
6.482	0.6798
6.539	0.6077
6.597	0.5974
6.657	1.0609
6.717	1.8128
6.778	2.6574
6.841	6.7671
6.905	6.6126
6.97	4.4084
7.036	4.2745
7.103	3.2342
7.172	5.2015
7.242	9.7953
7.314	11.7111
7.387	7.5396
7.461	5.768
7.537	4.3466
7.614	3.708
7.694	3.4711
7.774	2.4823
7.857	1.8231
7.941	2.2145
8.027	3.5329
8.115	4.1406
8.205	4.4084
8.297	4.5423
8.391	3.7801
8.487	3.7286
8.585	6.1388
8.686	7.6529
8.789	6.7053
8.894	7.931
9.002	9.8262
9.113	13.0913
9.226	12.257
9.343	9.1258
9.462	8.1061
9.585	7.416
9.71	6.7259
9.839	6.4272
9.972	6.1491
10.108	4.6865
10.247	4.8101
10.391	11.2682
10.539	6.8083
10.691	4.9955
10.848	3.6874
11.009	4.3363
11.175	3.605
11.346	3.9037
11.522	6.0358
11.704	5.2118
11.892	3.8419
12.086	5.4899
12.287	10.403
12.494	9.1876
12.708	7.6426
12.93	6.1182
13.16	5.2427
13.398	4.6041
13.644	3.9037
13.9	3.9861
