Name: Basalt
Type: Rock
Class: Igneous
Subclass: Mafic
Particle Size: Whole rock chips
Sample No.: ba1b1f2
Owner: Larry Rowan, USGS
Origin: Sweimah, Jordan
Description: dark gray basalt
Measurement: Reflectance
X Units: Wavelength (micrometers)
Y Units: Reflectance (percent)
wavelength	value
0.4	11.2
0.408	11.2
0.416	11.4
0.424	10.9
0.432	10.9
0.44	10.7
0.448	10.5
0.456	10
0.464	9.9
0.472	9.5
0.48	9.5
0.488	9.4
0.496	9.5
0.504	9.4
0.512	9.4
0.52	9.5
0.528	9.6
0.536	9.5
0.544	9.8
0.552	9.6
0.56	9.8
0.568	9.8
0.576	9.9
0.584	9.9
0.592	9.8
0.6	9.8
0.608	10.3
0.616	10
0.624	10
0.632	10.3
0.64	10.1
0.648	10
0.656	10.3
0.664	10.3
0.672	10.3
0.68	10.1
0.688	10.3
0.696	10.3
0.704	10.3
0.712	10.3
0.72	10.4
0.728	10.3
0.736	10.5
0.744	10.4
0.752	10.5
0.76	10.3
0.768	10.5
0.776	10.5
0.784	10.5
0.792	10.5
0.8	10.7
0.832	10.7
0.864	10.7
0.896	11
0.928	11
0.96	10.9
0.992	10.9
1.024	11
1.056	11
1.088	10.7
1.12	10.9
1.152	10.7
1.184	10.7
1.216	10.6
1.248	10.7
1.28	10.4
1.312	10.4
1.344	10.3
1.376	10.1
1.408	9.9
1.44	9.9
1.472	9.9
1.504	9.8
1.536	10
1.568	9.8
1.6	9.9
1.632	9.6
1.664	9.8
1.696	9.8
1.728	9.5
1.76	9.3
1.792	9.4
1.824	9.3
1.856	9.2
1.888	8.4
1.92	8.1
1.952	8.2
1.984	8.5
2.016	8.7
2.048	8.7
2.08	8.8
2.102	9.36
2.109	9.61
2.116	9.42
2.123	9.45
2.13	9.55
2.137	9.48
2.144	9.52
2.151	9.46
2.158	9.59
2.165	9.42
2.173	9.38
2.18	9.33
2.187	9.7
2.195	9.32
2.202	9.33
2.21	9.45
2.217	9.51
2.225	9.32
2.232	9.26
2.24	9.42
2.248	9.48
2.256	9.33
2.264	9.13
2.272	9.3
2.28	9.22
2.288	9.23
2.296	9.35
2.304	9.09
2.312	8.98
2.32	9.12
2.329	9.14
2.337	9.28
2.346	9.01
2.354	8.98
2.363	8.99
2.371	8.81
2.38	8.93
2.389	8.85
2.398	8.71
2.406	8.68
2.415	8.47
2.424	8.55
2.434	8.34
2.443	8.53
2.452	8.26
2.461	8.33
2.471	8.14
2.48	8.16
2.49	7.93
2.499	8.09
2.509	7.94
2.519	7.69
2.528	7.87
2.538	7.76
2.548	7.9
2.558	7.79
2.569	7.84
2.579	7.74
2.589	7.9
2.599	7.69
2.61	7.87
2.62	7.63
2.631	7.87
2.642	7.4
2.653	7.58
2.664	7.4
2.675	7.24
2.686	6.83
2.697	6.56
2.708	6.06
2.719	5.45
2.731	4.82
2.742	4.57
2.754	4.19
2.766	4.14
2.778	4.12
2.79	4.14
2.802	4.08
2.814	3.99
2.826	4.07
2.838	4.13
2.851	3.97
2.864	4.04
2.876	4.07
2.889	4.05
2.902	4.05
2.915	4.06
2.928	4.09
2.942	3.97
2.955	4.17
2.968	3.91
2.982	4.1
2.996	4.09
3.01	4.14
3.024	4.18
3.038	4.23
3.052	4.26
3.067	4.2
3.081	4.2
3.096	4.3
3.111	4.24
3.126	4.42
3.141	4.41
3.156	4.56
3.172	4.56
3.187	4.64
3.203	4.68
3.219	4.81
3.235	4.79
3.251	4.83
3.268	5.1
3.284	4.97
3.301	5.1
3.318	5.11
3.335	5.17
3.352	5.31
3.37	5.44
3.387	5.5
3.405	5.58
3.423	5.69
3.441	5.72
3.46	5.79
3.478	5.8
3.497	5.93
3.516	6.04
3.535	6.06
3.554	6.22
3.574	6.23
3.594	6.46
3.614	6.5
3.634	6.6
3.655	6.63
3.675	6.68
3.696	6.8
3.717	6.84
3.739	6.84
3.761	6.92
3.782	6.84
3.805	6.73
3.827	6.76
3.85	6.68
3.873	6.63
3.896	6.66
3.92	6.6
3.944	6.63
3.968	6.54
3.992	6.62
4.017	6.54
4.042	6.55
4.067	6.57
4.093	6.59
4.119	6.42
4.145	6.46
4.172	6.41
4.199	6.35
4.226	6.28
4.254	6.18
4.282	6.17
4.311	6.14
4.34	6
4.369	5.91
4.398	5.83
4.428	5.79
4.459	5.69
4.49	5.63
4.521	5.58
4.553	5.47
4.585	5.39
4.618	5.26
4.651	5.16
4.684	5.05
4.719	5.05
4.753	5.06
4.788	5.03
4.824	4.99
4.86	4.97
4.897	4.9
4.934	4.92
4.972	4.85
5.01	4.85
5.049	4.8
5.089	4.67
5.129	4.65
5.17	4.64
5.212	4.54
5.254	4.48
5.297	4.38
5.341	4.34
5.385	4.24
5.43	4.14
5.476	4
5.523	3.91
5.57	3.77
5.618	3.7
5.667	3.6
5.717	3.61
5.768	3.49
5.82	3.29
5.873	3.14
5.926	2.96
5.981	2.81
6.037	2.68
6.094	2.67
6.151	2.69
6.21	2.91
6.27	3.04
6.332	3.22
6.394	3.34
6.458	3.53
6.523	3.51
6.589	3.41
6.657	3.31
6.726	3.28
6.796	3.17
6.868	3.23
6.942	3.19
7.017	3.17
7.094	3.05
7.172	2.95
7.252	2.79
7.334	2.61
7.418	2.6
7.504	2.49
7.592	2.4
7.682	2.3
7.774	2.26
7.869	2.24
7.965	2.24
8.064	2.27
8.166	2.56
8.27	3.22
8.377	4.16
8.487	4.78
8.599	5.7
8.715	6.47
8.834	7
8.956	7.85
9.081	8.41
9.21	9.09
9.343	10.72
9.479	11.93
9.62	11.93
9.765	11.18
9.914	10.17
10.068	9.21
10.227	8.37
10.391	7.72
10.56	7.35
10.735	7.06
10.916	6.83
11.103	6.41
11.297	6.35
11.497	5.53
11.704	4.8
11.92	4.24
12.143	3.77
12.375	3.28
12.616	2.99
12.866	2.9
13.126	2.88
13.398	2.9
13.68	2.83
13.975	2.73
