Name: Basalt
Type: Rock
Class: Igneous
Subclass: Mafic
Particle Size: Whole rock chips
Sample No.: ba14c2f
Owner: Larry Rowan, USGS
Origin: Kerak/DAT RAS, Jordan
Description: medium grained, dark gray basalt
Measurement: Reflectance
X Units: Wavelength (micrometers)
Y Units: Reflectance (percent)
wavelength	value
0.4	11.6
0.408	11.5
0.416	11.8
0.424	11.3
0.432	11.3
0.44	10.7
0.448	10.7
0.456	10.2
0.464	9.8
0.472	9.7
0.48	9.7
0.488	9.4
0.496	9.4
0.504	9.3
0.512	9.3
0.52	9.4
0.528	9.4
0.536	9.3
0.544	9.3
0.552	9.3
0.56	9.9
0.568	9.9
0.576	9.9
0.584	10
0.592	9.9
0.6	9.9
0.608	10
0.616	10.3
0.624	10.3
0.632	10.4
0.64	10.3
0.648	10.2
0.656	10.4
0.664	10.4
0.672	10.5
0.68	10.5
0.688	10.5
0.696	10.3
0.704	10.7
0.712	10.7
0.72	10.9
0.728	11
0.736	10.8
0.744	10.7
0.752	11
0.76	10.8
0.768	10.8
0.776	10.8
0.784	11
0.792	10.9
0.8	11.4
0.832	11.2
0.864	11.4
0.896	11.1
0.928	11.1
0.96	10.7
0.992	11
1.024	10.4
1.056	10.4
1.088	10.5
1.12	10.7
1.152	10.7
1.184	10.9
1.216	11
1.248	11
1.28	10.9
1.312	11
1.344	11.2
1.376	11.4
1.408	11.6
1.44	12
1.472	12.1
1.504	12.2
1.536	12.7
1.568	12.8
1.6	13.1
1.632	13.3
1.664	13.7
1.696	13.6
1.728	13.7
1.76	13.4
1.792	13.6
1.824	13.4
1.856	13.3
1.888	12.8
1.92	12.7
1.952	12.7
1.984	12.8
2.016	13.1
2.048	13.1
2.08	13.1
2.102	12.31
2.109	12.56
2.116	12.34
2.123	12.35
2.13	12.34
2.137	12.49
2.144	12.35
2.151	12.35
2.158	12.3
2.165	12.11
2.173	12.1
2.18	12.19
2.187	12.16
2.195	12.07
2.202	12
2.21	12.03
2.217	11.8
2.225	11.98
2.232	11.88
2.24	12.09
2.248	12.16
2.256	12.01
2.264	12.13
2.272	12.12
2.28	11.95
2.288	11.85
2.296	11.77
2.304	12
2.312	12.02
2.32	11.87
2.329	11.9
2.337	11.87
2.346	11.91
2.354	11.85
2.363	12
2.371	11.89
2.38	11.88
2.389	11.91
2.398	11.88
2.406	11.86
2.415	11.66
2.424	11.8
2.434	11.79
2.443	11.47
2.452	11.71
2.461	11.72
2.471	11.76
2.48	11.67
2.49	11.64
2.499	11.6
2.509	11.54
2.519	11.49
2.528	11.47
2.538	11.43
2.548	11.26
2.558	11.4
2.569	10.9
2.579	11.49
2.589	11.19
2.599	11.35
2.61	11.15
2.62	10.72
2.631	10.89
2.642	11.26
2.653	11.02
2.664	10.3
2.675	10.08
2.686	9.84
2.697	8.91
2.708	7.63
2.719	6.94
2.731	7.31
2.742	6.44
2.754	5.7
2.766	5.96
2.778	6.24
2.79	6.12
2.802	6.02
2.814	6.23
2.826	6.44
2.838	6.06
2.851	6.16
2.864	6.26
2.876	6.2
2.889	6.14
2.902	6.04
2.915	6.17
2.928	6.16
2.942	6.01
2.955	6.03
2.968	5.95
2.982	6.19
2.996	6.14
3.01	6.25
3.024	6.3
3.038	6.35
3.052	6.39
3.067	6.36
3.081	6.42
3.096	6.36
3.111	6.43
3.126	6.45
3.141	6.66
3.156	6.76
3.172	6.8
3.187	6.96
3.203	7
3.219	7.06
3.235	7.21
3.251	7.44
3.268	7.43
3.284	7.49
3.301	7.63
3.318	7.71
3.335	7.63
3.352	7.45
3.37	7.69
3.387	7.79
3.405	7.96
3.423	8.1
3.441	8.05
3.46	8.02
3.478	8.07
3.497	8.07
3.516	8.21
3.535	8.5
3.554	8.71
3.574	8.71
3.594	8.92
3.614	8.96
3.634	9.03
3.655	9.05
3.675	9.12
3.696	9.15
3.717	9.18
3.739	9.13
3.761	9.14
3.782	9.01
3.805	8.72
3.827	8.55
3.85	8.43
3.873	8.38
3.896	8.37
3.92	8.27
3.944	8.16
3.968	7.95
3.992	8
4.017	8.13
4.042	8.3
4.067	8.45
4.093	8.56
4.119	8.52
4.145	8.48
4.172	8.49
4.199	8.25
4.226	7.39
4.254	7.93
4.282	7.49
4.311	7.7
4.34	7.81
4.369	7.72
4.398	7.59
4.428	7.47
4.459	7.32
4.49	7.14
4.521	6.95
4.553	6.77
4.585	6.57
4.618	6.33
4.651	6.16
4.684	5.99
4.719	5.91
4.753	5.8
4.788	5.69
4.824	5.6
4.86	5.51
4.897	5.38
4.934	5.27
4.972	5.12
5.01	5.01
5.049	4.92
5.089	4.8
5.129	4.72
5.17	4.59
5.212	4.46
5.254	4.44
5.297	4.27
5.341	4.15
5.385	4.1
5.43	3.99
5.476	3.79
5.523	3.7
5.57	3.43
5.618	3.52
5.667	3.41
5.717	3.31
5.768	3.19
5.82	3
5.873	2.85
5.926	2.85
5.981	2.87
6.037	2.68
6.094	2.92
6.151	2.89
6.21	3.17
6.27	3.28
6.332	3.5
6.394	4.25
6.458	5.93
6.523	5.98
6.589	5.53
6.657	5.53
6.726	5.29
6.796	5.03
6.868	4.8
6.942	4.63
7.017	4.57
7.094	4.34
7.172	3.62
7.252	3.15
7.334	2.89
7.418	2.77
7.504	2.69
7.592	2.53
7.682	2.34
7.774	2.25
7.869	2.26
7.965	2.22
8.064	2.36
8.166	2.87
8.27	4.34
8.377	5.55
8.487	6.22
8.599	6.93
8.715	7.64
8.834	8.58
8.956	9.35
9.081	9.22
9.21	8.93
9.343	9.77
9.479	10.9
9.62	11.62
9.765	11.68
9.914	11.59
10.068	11.22
10.227	11.32
10.391	11.55
10.56	11.24
10.735	12.03
10.916	11.66
11.103	11.03
11.297	11.43
11.497	9.02
11.704	7.4
11.92	6.55
12.143	5.86
12.375	4.99
12.616	4.44
12.866	4.16
13.126	4.02
13.398	3.98
13.68	3.97
13.975	3.79
