Name: Basalt
Type: Rock
Class: Igneous
Subclass: Mafic
Particle Size: Whole rock chips
Sample No.: ba9a3f
Owner: Larry Rowan, USGS
Origin: Wadi Salima, Jordan
Description: dark gray vesicular basalt
Measurement: Reflectance
X Units: Wavelength (micrometers)
Y Units: Reflectance (percent)
wavelength	value
0.4	10.3
0.408	9.8
0.416	9.9
0.424	9.4
0.432	9.3
0.44	9
0.448	8.9
0.456	8.6
0.464	8.4
0.472	8.2
0.48	8.1
0.488	7.9
0.496	7.9
0.504	7.7
0.512	7.8
0.52	7.8
0.528	7.7
0.536	7.7
0.544	7.7
0.552	7.7
0.56	7.7
0.568	7.9
0.576	7.7
0.584	7.8
0.592	7.8
0.6	7.9
0.608	7.8
0.616	7.8
0.624	8.1
0.632	7.7
0.64	8.1
0.648	8.1
0.656	8.2
0.664	8.2
0.672	8.2
0.68	8.2
0.688	8.2
0.696	8.2
0.704	8.4
0.712	8.4
0.72	8.7
0.728	8.7
0.736	8.8
0.744	8.7
0.752	8.9
0.76	8.8
0.768	8.9
0.776	9
0.784	9
0.792	9.2
0.8	9.4
0.832	9.2
0.864	9.3
0.896	9.3
0.928	9.2
0.96	9
0.992	9.2
1.024	8.9
1.056	8.8
1.088	8.8
1.12	8.8
1.152	8.5
1.184	8.5
1.216	8.5
1.248	8.3
1.28	8.1
1.312	8.2
1.344	8.1
1.376	7.9
1.408	7.7
1.44	7.7
1.472	7.7
1.504	7.7
1.536	7.7
1.568	7.7
1.6	7.6
1.632	7.6
1.664	7.4
1.696	7.6
1.728	7.6
1.76	7.3
1.792	7.3
1.824	7.3
1.856	7.3
1.888	7.1
1.92	6.7
1.952	6.7
1.984	7
2.016	7.2
2.048	7.2
2.08	7.3
2.102	7.43
2.109	7.24
2.116	7.22
2.123	7.5
2.13	7.68
2.137	7.47
2.144	7.48
2.151	7.49
2.158	7.4
2.165	7.37
2.173	7.37
2.18	7.12
2.187	7.38
2.195	7.21
2.202	7.06
2.21	6.98
2.217	7.31
2.225	7.41
2.232	7.27
2.24	7.38
2.248	7.37
2.256	7.45
2.264	7.16
2.272	7.31
2.28	7.28
2.288	7.27
2.296	7.1
2.304	7.25
2.312	7.12
2.32	7.29
2.329	7.02
2.337	7
2.346	7.09
2.354	7.01
2.363	7.02
2.371	7.18
2.38	6.71
2.389	7.05
2.398	7.02
2.406	6.95
2.415	6.88
2.424	6.82
2.434	6.69
2.443	6.72
2.452	6.67
2.461	6.54
2.471	6.54
2.48	6.54
2.49	6.45
2.499	6.48
2.509	6.22
2.519	6.46
2.528	6.3
2.538	6.39
2.548	6.17
2.558	6.11
2.569	5.72
2.579	5.93
2.589	5.64
2.599	6.01
2.61	5.52
2.62	5.33
2.631	5.38
2.642	5.78
2.653	5.29
2.664	4.9
2.675	4.46
2.686	4.36
2.697	3.83
2.708	3.09
2.719	2.84
2.731	3.23
2.742	2.7
2.754	2.35
2.766	2.67
2.778	2.79
2.79	2.67
2.802	2.49
2.814	2.44
2.826	2.79
2.838	2.56
2.851	2.65
2.864	2.72
2.876	2.63
2.889	2.66
2.902	2.79
2.915	2.65
2.928	2.83
2.942	2.73
2.955	2.77
2.968	2.69
2.982	2.68
2.996	2.75
3.01	2.8
3.024	2.88
3.038	2.84
3.052	2.75
3.067	2.67
3.081	2.83
3.096	2.83
3.111	2.93
3.126	3.02
3.141	2.93
3.156	3.06
3.172	3.15
3.187	3.21
3.203	3.17
3.219	3.12
3.235	3.32
3.251	3.41
3.268	3.37
3.284	3.51
3.301	3.49
3.318	3.57
3.335	3.68
3.352	3.72
3.37	3.76
3.387	3.88
3.405	4.08
3.423	4.08
3.441	4.15
3.46	4.12
3.478	4.23
3.497	4.28
3.516	4.54
3.535	4.66
3.554	4.62
3.574	4.92
3.594	4.87
3.614	5
3.634	5.02
3.655	5.12
3.675	5.16
3.696	5.33
3.717	5.38
3.739	5.42
3.761	5.39
3.782	5.4
3.805	5.38
3.827	5.4
3.85	5.41
3.873	5.39
3.896	5.39
3.92	5.49
3.944	5.35
3.968	5.32
3.992	5.3
4.017	5.36
4.042	5.55
4.067	5.5
4.093	5.57
4.119	5.59
4.145	5.54
4.172	5.59
4.199	5.45
4.226	4.74
4.254	5.14
4.282	4.84
4.311	5.12
4.34	5.31
4.369	5.33
4.398	5.29
4.428	5.29
4.459	5.24
4.49	5.29
4.521	5.12
4.553	5.13
4.585	5.07
4.618	5
4.651	4.98
4.684	4.88
4.719	4.9
4.753	4.96
4.788	4.91
4.824	4.85
4.86	4.83
4.897	4.76
4.934	4.73
4.972	4.72
5.01	4.63
5.049	4.69
5.089	4.69
5.129	4.65
5.17	4.64
5.212	4.44
5.254	4.58
5.297	4.51
5.341	4.34
5.385	4.42
5.43	4.32
5.476	4.03
5.523	4.03
5.57	3.68
5.618	3.96
5.667	3.72
5.717	3.41
5.768	3.23
5.82	2.78
5.873	2.47
5.926	2.37
5.981	2.17
6.037	1.88
6.094	2.31
6.151	2.32
6.21	2.73
6.27	3.03
6.332	3
6.394	3.13
6.458	3.42
6.523	3.22
6.589	2.92
6.657	3.24
6.726	3.3
6.796	3.23
6.868	3.14
6.942	3.3
7.017	3.27
7.094	3.37
7.172	3.13
7.252	3.21
7.334	2.99
7.418	3.14
7.504	3
7.592	2.93
7.682	2.83
7.774	2.83
7.869	2.6
7.965	2.5
8.064	2.41
8.166	2.22
8.27	2.07
8.377	2.05
8.487	2.08
8.599	2.41
8.715	3.03
8.834	3.87
8.956	4.97
9.081	5.78
9.21	6.5
9.343	7.69
9.479	8.14
9.62	7.98
9.765	7.32
9.914	6.63
10.068	6.09
10.227	5.84
10.391	5.54
10.56	5.53
10.735	5.35
10.916	5.44
11.103	5.38
11.297	5.32
11.497	4.72
11.704	3.96
11.92	3.52
12.143	3.11
12.375	2.86
12.616	2.54
12.866	2.33
13.126	2.2
13.398	2.25
13.68	2.26
13.975	2.03
