Name: Basalt
Type: Rock
Class: Igneous
Subclass: Mafic
Particle Size: Whole rock chips
Sample No.: ba9c2f
Owner: Larry Rowan, USGS
Origin: Wadi Salima, Jordan
Description: dark gray vesicular basalt
Measurement: Reflectance
X Units: Wavelength (micrometers)
Y Units: Reflectance (percent)
wavelength	value
0.4	12.2
0.408	12.2
0.416	12.2
0.424	11.8
0.432	11.5
0.44	11.2
0.448	11.1
0.456	10.4
0.464	10.2
0.472	10.1
0.48	9.8
0.488	10
0.496	9.7
0.504	9.8
0.512	9.8
0.52	9.3
0.528	9.7
0.536	9.6
0.544	9.4
0.552	9.6
0.56	9.7
0.568	9.6
0.576	9.7
0.584	9.6
0.592	9.7
0.6	9.6
0.608	9.7
0.616	9.7
0.624	9.7
0.632	9.7
0.64	9.8
0.648	9.6
0.656	9.8
0.664	9.8
0.672	9.8
0.68	9.7
0.688	9.7
0.696	9.7
0.704	9.7
0.712	9.8
0.72	10
0.728	10
0.736	9.8
0.744	10
0.752	10
0.76	10
0.768	10.1
0.776	10
0.784	10
0.792	10.1
0.8	9.6
0.832	9.6
0.864	9.8
0.896	9.9
0.928	10
0.96	9.9
0.992	9.9
1.024	10
1.056	9.9
1.088	9.9
1.12	9.9
1.152	9.8
1.184	9.8
1.216	9.5
1.248	9.4
1.28	9.3
1.312	9.3
1.344	9.4
1.376	9
1.408	9
1.44	9
1.472	8.8
1.504	8.9
1.536	8.9
1.568	8.9
1.6	8.8
1.632	8.8
1.664	8.8
1.696	8.8
1.728	8.7
1.76	8.4
1.792	8.4
1.824	8.4
1.856	8.2
1.888	7.9
1.92	7.7
1.952	7.6
1.984	7.8
2.016	7.9
2.048	8.1
2.08	8.1
2.102	8.36
2.109	8.31
2.116	8.17
2.123	8.33
2.13	8.15
2.137	8.25
2.144	8.09
2.151	7.95
2.158	8.13
2.165	8.18
2.173	8.2
2.18	8.08
2.187	8.2
2.195	8.03
2.202	7.8
2.21	7.81
2.217	7.68
2.225	7.82
2.232	7.82
2.24	7.78
2.248	7.9
2.256	8.06
2.264	7.81
2.272	8.04
2.28	7.95
2.288	7.81
2.296	7.85
2.304	7.61
2.312	7.86
2.32	7.89
2.329	7.78
2.337	7.75
2.346	7.56
2.354	7.68
2.363	7.66
2.371	7.64
2.38	7.73
2.389	7.82
2.398	7.49
2.406	7.56
2.415	7.58
2.424	7.53
2.434	7.37
2.443	7.31
2.452	7.29
2.461	7.31
2.471	7.23
2.48	7.21
2.49	7.11
2.499	7.14
2.509	6.96
2.519	7
2.528	6.89
2.538	6.81
2.548	6.68
2.558	6.75
2.569	6.67
2.579	6.86
2.589	6.47
2.599	6.65
2.61	6.5
2.62	6.11
2.631	6.2
2.642	6.45
2.653	6.04
2.664	5.68
2.675	5.49
2.686	4.77
2.697	4.28
2.708	3.47
2.719	3.15
2.731	3.18
2.742	3.05
2.754	2.5
2.766	3.05
2.778	2.87
2.79	2.88
2.802	3
2.814	3.13
2.826	3.15
2.838	3.15
2.851	3.26
2.864	3.19
2.876	3.32
2.889	3.25
2.902	3.23
2.915	3.36
2.928	3.21
2.942	3.21
2.955	3.38
2.968	3.39
2.982	3.44
2.996	3.26
3.01	3.66
3.024	3.5
3.038	3.51
3.052	3.47
3.067	3.43
3.081	3.59
3.096	3.58
3.111	3.57
3.126	3.55
3.141	3.57
3.156	3.74
3.172	3.75
3.187	3.8
3.203	3.92
3.219	3.99
3.235	4.01
3.251	4.13
3.268	4.09
3.284	4.23
3.301	4.21
3.318	4.34
3.335	4.35
3.352	4.27
3.37	4.42
3.387	4.55
3.405	4.68
3.423	4.8
3.441	4.79
3.46	4.85
3.478	4.82
3.497	4.9
3.516	5.03
3.535	5.24
3.554	5.36
3.574	5.43
3.594	5.5
3.614	5.59
3.634	5.57
3.655	5.59
3.675	5.75
3.696	5.75
3.717	5.76
3.739	5.78
3.761	5.75
3.782	5.74
3.805	5.64
3.827	5.52
3.85	5.44
3.873	5.41
3.896	5.38
3.92	5.35
3.944	5.17
3.968	5.07
3.992	5.13
4.017	5.42
4.042	5.64
4.067	5.73
4.093	5.72
4.119	5.8
4.145	5.75
4.172	5.71
4.199	5.62
4.226	5.08
4.254	5.43
4.282	5.12
4.311	5.34
4.34	5.41
4.369	5.5
4.398	5.42
4.428	5.44
4.459	5.37
4.49	5.32
4.521	5.22
4.553	5.19
4.585	5.15
4.618	5.07
4.651	4.97
4.684	4.9
4.719	4.97
4.753	4.92
4.788	4.86
4.824	4.76
4.86	4.75
4.897	4.67
4.934	4.71
4.972	4.64
5.01	4.63
5.049	4.55
5.089	4.5
5.129	4.54
5.17	4.49
5.212	4.42
5.254	4.55
5.297	4.51
5.341	4.35
5.385	4.34
5.43	4.26
5.476	4.01
5.523	3.94
5.57	3.53
5.618	3.86
5.667	3.71
5.717	3.51
5.768	3.32
5.82	2.97
5.873	2.71
5.926	2.63
5.981	2.32
6.037	2.04
6.094	2.31
6.151	2.4
6.21	2.91
6.27	3.46
6.332	3.87
6.394	5.48
6.458	7.75
6.523	7.53
6.589	6.77
6.657	6.84
6.726	6.69
6.796	6.34
6.868	6.09
6.942	6.07
7.017	6.15
7.094	5.98
7.172	4.83
7.252	4.23
7.334	3.87
7.418	3.89
7.504	3.73
7.592	3.66
7.682	3.79
7.774	3.76
7.869	3.65
7.965	3.52
8.064	3.41
8.166	3.43
8.27	3.29
8.377	3.3
8.487	3.5
8.599	4.1
8.715	5.26
8.834	6.54
8.956	7.92
9.081	9.49
9.21	10.36
9.343	11.92
9.479	12.88
9.62	11.86
9.765	10.18
9.914	8.98
10.068	7.93
10.227	7.3
10.391	6.66
10.56	5.99
10.735	5.87
10.916	6.2
11.103	6.11
11.297	8.11
11.497	5.81
11.704	4.89
11.92	4.27
12.143	3.95
12.375	3.51
12.616	3.28
12.866	2.99
13.126	2.98
13.398	2.96
13.68	2.84
13.975	3.09
